*SPEF "ieee 1481-1999"
*DESIGN "flex_counter"
*DATE "11:11:11 Fri 11 11, 1111"
*VENDOR "OpenRCX"
*PROGRAM "Parallel Extraction"
*VERSION "1.0"
*DESIGN_FLOW "NAME_SCOPE LOCAL" "PIN_CAP NONE"
*DIVIDER /
*DELIMITER :
*BUS_DELIMITER []
*T_UNIT 1 NS
*C_UNIT 1 PF
*R_UNIT 1 OHM
*L_UNIT 1 HENRY

*NAME_MAP
*3 clear
*4 clk
*5 count[0]
*6 count[1]
*7 count[2]
*8 count[3]
*9 enable
*10 flag
*11 nRST
*12 rollover[0]
*13 rollover[1]
*14 rollover[2]
*15 rollover[3]
*16 _00_
*17 _01_
*18 _02_
*19 _03_
*20 _04_
*21 _05_
*22 _06_
*23 _07_
*24 _08_
*25 _09_
*26 _10_
*27 _11_
*28 _12_
*29 _13_
*30 _14_
*31 _15_
*32 _16_
*33 _17_
*34 _18_
*35 _19_
*36 _20_
*37 _21_
*38 _22_
*39 _23_
*40 _24_
*41 _25_
*42 _26_
*43 _27_
*44 _28_
*45 _29_
*46 _30_
*47 _31_
*48 _32_
*49 _33_
*50 _34_
*51 _35_
*52 _36_
*53 clknet_0_clk
*54 clknet_1_0__leaf_clk
*55 clknet_1_1__leaf_clk
*56 net1
*57 net10
*58 net11
*59 net12
*60 net13
*61 net2
*62 net3
*63 net4
*64 net5
*65 net6
*66 net7
*67 net8
*68 net9
*69 next_count\[0\]
*70 next_count\[1\]
*71 next_count\[2\]
*72 next_count\[3\]
*73 next_flag
*74 FILLER_0_0_11
*75 FILLER_0_0_19
*76 FILLER_0_0_27
*77 FILLER_0_0_29
*78 FILLER_0_0_3
*79 FILLER_0_0_37
*80 FILLER_0_0_45
*81 FILLER_0_0_53
*82 FILLER_0_0_57
*83 FILLER_0_0_64
*84 FILLER_0_10_15
*85 FILLER_0_10_23
*86 FILLER_0_10_27
*87 FILLER_0_10_29
*88 FILLER_0_10_37
*89 FILLER_0_10_48
*90 FILLER_0_10_57
*91 FILLER_0_10_7
*92 FILLER_0_1_18
*93 FILLER_0_1_26
*94 FILLER_0_1_35
*95 FILLER_0_1_46
*96 FILLER_0_1_6
*97 FILLER_0_1_63
*98 FILLER_0_2_54
*99 FILLER_0_2_6
*100 FILLER_0_3_25
*101 FILLER_0_3_54
*102 FILLER_0_3_62
*103 FILLER_0_4_18
*104 FILLER_0_4_27
*105 FILLER_0_4_29
*106 FILLER_0_4_44
*107 FILLER_0_4_9
*108 FILLER_0_5_11
*109 FILLER_0_5_19
*110 FILLER_0_5_27
*111 FILLER_0_5_3
*112 FILLER_0_5_62
*113 FILLER_0_7_53
*114 FILLER_0_7_57
*115 FILLER_0_8_23
*116 FILLER_0_8_27
*117 FILLER_0_8_41
*118 FILLER_0_9_23
*119 FILLER_0_9_45
*120 FILLER_0_9_53
*121 FILLER_0_9_57
*122 PHY_EDGE_ROW_0_Left_11
*123 PHY_EDGE_ROW_0_Right_0
*124 PHY_EDGE_ROW_10_Left_21
*125 PHY_EDGE_ROW_10_Right_10
*126 PHY_EDGE_ROW_1_Left_12
*127 PHY_EDGE_ROW_1_Right_1
*128 PHY_EDGE_ROW_2_Left_13
*129 PHY_EDGE_ROW_2_Right_2
*130 PHY_EDGE_ROW_3_Left_14
*131 PHY_EDGE_ROW_3_Right_3
*132 PHY_EDGE_ROW_4_Left_15
*133 PHY_EDGE_ROW_4_Right_4
*134 PHY_EDGE_ROW_5_Left_16
*135 PHY_EDGE_ROW_5_Right_5
*136 PHY_EDGE_ROW_6_Left_17
*137 PHY_EDGE_ROW_6_Right_6
*138 PHY_EDGE_ROW_7_Left_18
*139 PHY_EDGE_ROW_7_Right_7
*140 PHY_EDGE_ROW_8_Left_19
*141 PHY_EDGE_ROW_8_Right_8
*142 PHY_EDGE_ROW_9_Left_20
*143 PHY_EDGE_ROW_9_Right_9
*144 TAP_TAPCELL_ROW_0_22
*145 TAP_TAPCELL_ROW_0_23
*146 TAP_TAPCELL_ROW_10_33
*147 TAP_TAPCELL_ROW_10_34
*148 TAP_TAPCELL_ROW_1_24
*149 TAP_TAPCELL_ROW_2_25
*150 TAP_TAPCELL_ROW_3_26
*151 TAP_TAPCELL_ROW_4_27
*152 TAP_TAPCELL_ROW_5_28
*153 TAP_TAPCELL_ROW_6_29
*154 TAP_TAPCELL_ROW_7_30
*155 TAP_TAPCELL_ROW_8_31
*156 TAP_TAPCELL_ROW_9_32
*157 _37_
*158 _38_
*159 _39_
*160 _40_
*161 _41_
*162 _42_
*163 _43_
*164 _44_
*165 _45_
*166 _46_
*167 _47_
*168 _48_
*169 _49_
*170 _50_
*171 _51_
*172 _52_
*173 _53_
*174 _54_
*175 _55_
*176 _56_
*177 _57_
*178 _58_
*179 _59_
*180 _60_
*181 _61_
*182 _62_
*183 _63_
*184 _64_
*185 _65_
*186 _66_
*187 _67_
*188 _68_
*189 _69_
*190 _70_
*191 _71_
*192 _72_
*193 _73_
*194 _74_
*195 _75_
*196 _76_
*197 _77_
*198 _78_
*199 _79_
*200 _80_
*201 _81_
*202 _82_
*203 _83_
*204 clkbuf_0_clk
*205 clkbuf_1_0__f_clk
*206 clkbuf_1_1__f_clk
*207 input1
*208 input2
*209 input3
*210 input4
*211 input5
*212 input6
*213 input7
*214 max_cap13
*215 output10
*216 output11
*217 output12
*218 output8
*219 output9

*PORTS
clear I
clk I
count[0] O
count[1] O
count[2] O
count[3] O
enable I
flag O
nRST I
rollover[0] I
rollover[1] I
rollover[2] I
rollover[3] I

*D_NET *3 0.000986771
*CONN
*P clear I
*I *207:A I *D sky130_fd_sc_hd__buf_1
*CAP
1 clear 0.000493386
2 *207:A 0.000493386
*RES
1 clear *207:A 23.3536 
*END

*D_NET *4 0.00221907
*CONN
*P clk I
*I *204:A I *D sky130_fd_sc_hd__clkbuf_16
*CAP
1 clk 0.000980293
2 *204:A 0.000980293
3 *204:A *202:CLK 1.34703e-05
4 *204:A *202:D 0.00014285
5 *204:A *209:A 8.37187e-05
6 *204:A *58:10 1.84402e-05
*RES
1 clk *204:A 28.0508 
*END

*D_NET *5 0.00149574
*CONN
*P count[0] O
*I *218:X O *D sky130_fd_sc_hd__buf_2
*CAP
1 count[0] 0.000562252
2 *218:X 0.000562252
3 count[0] *164:B_N 0.000190838
4 count[0] *193:A1 0.000115233
5 count[0] *210:A 6.51653e-05
*RES
1 *218:X count[0] 23.2306 
*END

*D_NET *6 0.000507027
*CONN
*P count[1] O
*I *219:X O *D sky130_fd_sc_hd__clkbuf_4
*CAP
1 count[1] 0.000216348
2 *219:X 0.000216348
3 count[1] count[2] 3.71658e-05
4 count[1] *200:CLK 0
5 count[1] *209:A 3.71658e-05
*RES
1 *219:X count[1] 20.2447 
*END

*D_NET *7 0.000990692
*CONN
*P count[2] O
*I *215:X O *D sky130_fd_sc_hd__clkbuf_4
*CAP
1 count[2] 0.000421151
2 *215:X 0.000421151
3 count[2] count[3] 0.000111224
4 count[2] *195:B 0
5 count[2] *209:A 0
6 count[1] count[2] 3.71658e-05
*RES
1 *215:X count[2] 23.0489 
*END

*D_NET *8 0.000890781
*CONN
*P count[3] O
*I *216:X O *D sky130_fd_sc_hd__clkbuf_4
*CAP
1 count[3] 0.000371747
2 *216:X 0.000371747
3 count[3] *212:A 3.60635e-05
4 count[2] count[3] 0.000111224
*RES
1 *216:X count[3] 21.7804 
*END

*D_NET *9 0.00128747
*CONN
*P enable I
*I *208:A I *D sky130_fd_sc_hd__dlymetal6s2s_1
*CAP
1 enable 0.000396286
2 *208:A 0.000396286
3 *208:A *192:A 1.56e-05
4 *208:A *192:B 7.32272e-05
5 *208:A *197:A1 0.00010096
6 *208:A *210:A 6.32722e-05
7 *208:A *217:A 0.000115206
8 *208:A *36:6 0.000100914
9 *208:A *36:19 2.57148e-05
*RES
1 enable *208:A 23.1586 
*END

*D_NET *10 0.000770721
*CONN
*P flag O
*I *217:X O *D sky130_fd_sc_hd__clkbuf_4
*CAP
1 flag 0.000327938
2 *217:X 0.000327938
3 flag *217:A 0.000114845
*RES
1 *217:X flag 19.4813 
*END

*D_NET *11 0.00101966
*CONN
*P nRST I
*I *209:A I *D sky130_fd_sc_hd__clkbuf_2
*CAP
1 nRST 0.000449386
2 *209:A 0.000449386
3 *209:A *202:CLK 0
4 *209:A *202:D 0
5 *209:A *202:RESET_B 0
6 count[1] *209:A 3.71658e-05
7 count[2] *209:A 0
8 *204:A *209:A 8.37187e-05
*RES
1 nRST *209:A 22.1413 
*END

*D_NET *12 0.000769406
*CONN
*P rollover[0] I
*I *210:A I *D sky130_fd_sc_hd__dlymetal6s2s_1
*CAP
1 rollover[0] 0.000263002
2 *210:A 0.000263002
3 *210:A *192:B 2.35521e-05
4 *210:A *193:A1 9.14132e-05
5 count[0] *210:A 6.51653e-05
6 *208:A *210:A 6.32722e-05
*RES
1 rollover[0] *210:A 20.5514 
*END

*D_NET *13 0.000563931
*CONN
*P rollover[1] I
*I *211:A I *D sky130_fd_sc_hd__buf_1
*CAP
1 rollover[1] 0.000263383
2 *211:A 0.000263383
3 *211:A *213:A 3.71658e-05
*RES
1 rollover[1] *211:A 20.8518 
*END

*D_NET *14 0.000456387
*CONN
*P rollover[2] I
*I *212:A I *D sky130_fd_sc_hd__buf_1
*CAP
1 rollover[2] 0.00019213
2 *212:A 0.00019213
3 *212:A *213:A 3.60635e-05
4 count[3] *212:A 3.60635e-05
*RES
1 rollover[2] *212:A 18.1229 
*END

*D_NET *15 0.000471156
*CONN
*P rollover[3] I
*I *213:A I *D sky130_fd_sc_hd__buf_1
*CAP
1 rollover[3] 0.000198963
2 *213:A 0.000198963
3 *211:A *213:A 3.71658e-05
4 *212:A *213:A 3.60635e-05
*RES
1 rollover[3] *213:A 19.9411 
*END

*D_NET *16 0.00410148
*CONN
*I *169:A I *D sky130_fd_sc_hd__or3b_1
*I *191:B I *D sky130_fd_sc_hd__or2_1
*I *157:X O *D sky130_fd_sc_hd__or3_1
*CAP
1 *169:A 0.000447136
2 *191:B 0.00023943
3 *157:X 0.000499845
4 *16:14 0.00118641
5 *169:A *168:A2 1.21289e-05
6 *169:A *175:A1 7.25873e-06
7 *169:A *175:A2 0.000180207
8 *169:A *180:A2 9.65414e-05
9 *169:A *180:A3 0.000122323
10 *169:A *180:B1 1.74137e-05
11 *169:A *214:A 5.99211e-05
12 *169:A *27:8 5.4959e-05
13 *169:A *63:8 9.84729e-05
14 *169:A *63:29 3.54498e-05
15 *191:B *180:A1 5.51716e-05
16 *191:B *197:C1 3.54498e-05
17 *191:B *38:12 0.000175118
18 *191:B *68:31 0
19 *16:14 *157:B 4.7526e-05
20 *16:14 *160:A_N 0.000271898
21 *16:14 *160:B 3.50746e-05
22 *16:14 *161:B 7.95917e-06
23 *16:14 *172:B1 1.98839e-05
24 *16:14 *180:A3 0.000137639
25 *16:14 *197:C1 4.2189e-05
26 *16:14 *18:8 3.43988e-06
27 *16:14 *19:20 0.000102053
28 *16:14 *20:14 5.5474e-05
29 *16:14 *20:24 5.51032e-05
*RES
1 *157:X *16:14 27.5679 
2 *16:14 *191:B 23.8893 
3 *16:14 *169:A 26.9071 
*END

*D_NET *17 0.000853202
*CONN
*I *168:A1 I *D sky130_fd_sc_hd__a2111oi_1
*I *158:Y O *D sky130_fd_sc_hd__inv_2
*CAP
1 *168:A1 0.000255007
2 *158:Y 0.000255007
3 *168:A1 *168:C1 6.33043e-05
4 *168:A1 *197:A2 0
5 *168:A1 *214:A 3.67279e-06
6 *168:A1 *67:65 0.000276211
*RES
1 *158:Y *168:A1 31.8321 
*END

*D_NET *18 0.00201143
*CONN
*I *170:B I *D sky130_fd_sc_hd__nand2_1
*I *162:A2 I *D sky130_fd_sc_hd__a211o_1
*I *167:A1_N I *D sky130_fd_sc_hd__a2bb2o_1
*I *159:Y O *D sky130_fd_sc_hd__inv_2
*CAP
1 *170:B 6.49342e-05
2 *162:A2 0
3 *167:A1_N 0.000402109
4 *159:Y 6.46496e-05
5 *18:33 0.000141046
6 *18:8 0.000542871
7 *167:A1_N *26:18 0.00032963
8 *167:A1_N *64:12 1.0078e-05
9 *170:B *162:A1 9.41642e-05
10 *170:B *170:A 9.67754e-05
11 *170:B *21:6 9.67754e-05
12 *18:8 *163:B_N 3.38089e-05
13 *18:8 *19:20 5.01745e-05
14 *18:33 *162:A1 3.17033e-05
15 *18:33 *171:B1 1.32056e-05
16 *18:33 *19:20 2.57669e-05
17 *18:33 *20:24 1.02937e-05
18 *16:14 *18:8 3.43988e-06
*RES
1 *159:Y *18:8 15.2911 
2 *18:8 *167:A1_N 21.6645 
3 *18:8 *18:33 6.30357 
4 *18:33 *162:A2 9.3 
5 *18:33 *170:B 11.0679 
*END

*D_NET *19 0.00155501
*CONN
*I *171:B1 I *D sky130_fd_sc_hd__a21o_1
*I *162:B1 I *D sky130_fd_sc_hd__a211o_1
*I *160:X O *D sky130_fd_sc_hd__and2b_1
*CAP
1 *171:B1 0.000355923
2 *162:B1 0
3 *160:X 0.000101055
4 *19:20 0.000456978
5 *171:B1 *163:B_N 0.000119236
6 *171:B1 *20:14 0
7 *171:B1 *20:24 2.2816e-05
8 *171:B1 *22:8 0.000272994
9 *19:20 *162:A1 5.22871e-06
10 *19:20 *20:14 1.24368e-05
11 *19:20 *20:24 1.7138e-05
12 *16:14 *19:20 0.000102053
13 *18:8 *19:20 5.01745e-05
14 *18:33 *171:B1 1.32056e-05
15 *18:33 *19:20 2.57669e-05
*RES
1 *160:X *19:20 21.2911 
2 *19:20 *162:B1 9.3 
3 *19:20 *171:B1 24.7464 
*END

*D_NET *20 0.00259397
*CONN
*I *162:C1 I *D sky130_fd_sc_hd__a211o_1
*I *174:A I *D sky130_fd_sc_hd__or3b_1
*I *180:A1 I *D sky130_fd_sc_hd__o31ai_2
*I *161:X O *D sky130_fd_sc_hd__and2b_1
*CAP
1 *162:C1 0
2 *174:A 0
3 *180:A1 0.000165983
4 *161:X 0.000216571
5 *20:24 0.000673795
6 *20:14 0.000724383
7 *180:A1 *172:B1 1.38807e-05
8 *180:A1 *173:A1 8.67814e-06
9 *180:A1 *174:B 3.75959e-05
10 *180:A1 *174:C_N 5.54817e-06
11 *180:A1 *180:A3 2.71964e-05
12 *180:A1 *21:6 5.50052e-05
13 *180:A1 *26:18 1.25188e-05
14 *20:14 *161:B 6.17619e-05
15 *20:14 *163:A 1.00643e-05
16 *20:24 *162:A1 0.000138541
17 *20:24 *170:A 0.000172309
18 *20:24 *21:6 4.17014e-05
19 *171:B1 *20:14 0
20 *171:B1 *20:24 2.2816e-05
21 *191:B *180:A1 5.51716e-05
22 *16:14 *20:14 5.5474e-05
23 *16:14 *20:24 5.51032e-05
24 *18:33 *20:24 1.02937e-05
25 *19:20 *20:14 1.24368e-05
26 *19:20 *20:24 1.7138e-05
*RES
1 *161:X *20:14 21.8357 
2 *20:14 *20:24 16.3393 
3 *20:24 *180:A1 21.6929 
4 *20:24 *174:A 9.3 
5 *20:14 *162:C1 9.3 
*END

*D_NET *21 0.00172975
*CONN
*I *168:B1 I *D sky130_fd_sc_hd__a2111oi_1
*I *173:A1 I *D sky130_fd_sc_hd__o31a_1
*I *162:X O *D sky130_fd_sc_hd__a211o_1
*CAP
1 *168:B1 8.18679e-05
2 *173:A1 0.000154472
3 *162:X 0.000158769
4 *21:6 0.000395109
5 *168:B1 *175:A2 0.000225367
6 *168:B1 *26:26 2.12733e-05
7 *168:B1 *27:8 9.07716e-05
8 *173:A1 *165:A 4.73386e-05
9 *173:A1 *173:A2 4.54415e-05
10 *173:A1 *173:A3 5.30135e-05
11 *173:A1 *174:C_N 0
12 *21:6 *170:A 4.63305e-05
13 *21:6 *26:26 0.000207838
14 *170:B *21:6 9.67754e-05
15 *180:A1 *173:A1 8.67814e-06
16 *180:A1 *21:6 5.50052e-05
17 *20:24 *21:6 4.17014e-05
*RES
1 *162:X *21:6 13.5321 
2 *21:6 *173:A1 21.6393 
3 *21:6 *168:B1 11.8893 
*END

*D_NET *22 0.00165959
*CONN
*I *165:A I *D sky130_fd_sc_hd__nand2_1
*I *171:A1 I *D sky130_fd_sc_hd__a21o_1
*I *163:X O *D sky130_fd_sc_hd__or2b_1
*CAP
1 *165:A 0.000121059
2 *171:A1 0
3 *163:X 0.00014371
4 *22:8 0.000264769
5 *165:A *165:B 1.40034e-05
6 *165:A *171:A2 0.000433198
7 *165:A *173:A2 4.39965e-05
8 *165:A *174:C_N 0.000118395
9 *165:A *67:65 9.20022e-05
10 *22:8 *163:B_N 5.49489e-05
11 *22:8 *171:A2 3.57366e-05
12 *22:8 *174:C_N 1.74352e-05
13 *171:B1 *22:8 0.000272994
14 *173:A1 *165:A 4.73386e-05
*RES
1 *163:X *22:8 13.1393 
2 *22:8 *171:A1 9.3 
3 *22:8 *165:A 15.2464 
*END

*D_NET *23 0.00186479
*CONN
*I *165:B I *D sky130_fd_sc_hd__nand2_1
*I *171:A2 I *D sky130_fd_sc_hd__a21o_1
*I *164:X O *D sky130_fd_sc_hd__or2b_1
*CAP
1 *165:B 1.41633e-05
2 *171:A2 0.000252462
3 *164:X 0.000199867
4 *23:6 0.000466492
5 *165:B *67:65 0
6 *171:A2 *67:65 2.95641e-05
7 *23:6 *164:B_N 0.000219064
8 *23:6 *67:65 0.000145009
9 *23:6 *67:72 5.52302e-05
10 *165:A *165:B 1.40034e-05
11 *165:A *171:A2 0.000433198
12 *22:8 *171:A2 3.57366e-05
*RES
1 *164:X *23:6 14.3536 
2 *23:6 *171:A2 15.1036 
3 *23:6 *165:B 9.72857 
*END

*D_NET *24 0.000777261
*CONN
*I *168:C1 I *D sky130_fd_sc_hd__a2111oi_1
*I *173:A2 I *D sky130_fd_sc_hd__o31a_1
*I *165:Y O *D sky130_fd_sc_hd__nand2_1
*CAP
1 *168:C1 5.02929e-05
2 *173:A2 0.000116509
3 *165:Y 3.58313e-05
4 *24:6 0.000202633
5 *168:C1 *67:52 0.000125159
6 *173:A2 *67:65 5.0281e-05
7 *24:6 *67:65 4.38128e-05
8 *165:A *173:A2 4.39965e-05
9 *168:A1 *168:C1 6.33043e-05
10 *173:A1 *173:A2 4.54415e-05
*RES
1 *165:Y *24:6 9.83571 
2 *24:6 *173:A2 11.6393 
3 *24:6 *168:C1 19.9429 
*END

*D_NET *25 0.000765794
*CONN
*I *167:B2 I *D sky130_fd_sc_hd__a2bb2o_1
*I *166:Y O *D sky130_fd_sc_hd__inv_2
*CAP
1 *167:B2 0.000230595
2 *166:Y 0.000230595
3 *167:B2 *157:A 5.38444e-06
4 *167:B2 *160:B 4.13122e-06
5 *167:B2 *167:A2_N 9.58181e-05
6 *167:B2 *64:12 7.89362e-05
7 *167:B2 *65:8 9.64831e-05
8 *167:B2 *66:12 2.38501e-05
*RES
1 *166:Y *167:B2 31.6714 
*END

*D_NET *26 0.00415798
*CONN
*I *172:B1 I *D sky130_fd_sc_hd__a21oi_1
*I *168:D1 I *D sky130_fd_sc_hd__a2111oi_1
*I *173:A3 I *D sky130_fd_sc_hd__o31a_1
*I *167:X O *D sky130_fd_sc_hd__a2bb2o_1
*CAP
1 *172:B1 0.000101129
2 *168:D1 4.16254e-05
3 *173:A3 0.000142315
4 *167:X 0.000742148
5 *26:26 0.000442512
6 *26:18 0.00110185
7 *168:D1 *175:A2 4.08637e-05
8 *172:B1 *172:A1 0.000150043
9 *172:B1 *172:A2 7.92596e-06
10 *172:B1 *174:B 7.89362e-05
11 *172:B1 *180:A3 5.90424e-05
12 *172:B1 *197:C1 2.85321e-05
13 *173:A3 *67:52 0.000239121
14 *26:18 *157:A 5.49489e-05
15 *26:18 *161:B 6.30931e-05
16 *26:18 *172:A2 3.00686e-05
17 *26:18 *174:C_N 2.06178e-05
18 *26:26 *174:B 5.66971e-05
19 *26:26 *175:A2 9.84673e-05
20 *167:A1_N *26:18 0.00032963
21 *168:B1 *26:26 2.12733e-05
22 *173:A1 *173:A3 5.30135e-05
23 *180:A1 *172:B1 1.38807e-05
24 *180:A1 *26:18 1.25188e-05
25 *16:14 *172:B1 1.98839e-05
26 *21:6 *26:26 0.000207838
*RES
1 *167:X *26:18 24.0516 
2 *26:18 *26:26 8.875 
3 *26:26 *173:A3 21.4607 
4 *26:26 *168:D1 9.83571 
5 *26:18 *172:B1 17.0143 
*END

*D_NET *27 0.00124482
*CONN
*I *169:C_N I *D sky130_fd_sc_hd__or3b_1
*I *214:A I *D sky130_fd_sc_hd__clkbuf_1
*I *168:Y O *D sky130_fd_sc_hd__a2111oi_1
*CAP
1 *169:C_N 0
2 *214:A 0.000182391
3 *168:Y 0.000181735
4 *27:8 0.000364125
5 *214:A *175:A2 3.33175e-05
6 *214:A *175:B1_N 2.38501e-05
7 *214:A *180:B1 1.32293e-05
8 *214:A *63:23 7.74068e-05
9 *27:8 *168:A2 0.000136035
10 *27:8 *175:A2 2.34113e-05
11 *168:A1 *214:A 3.67279e-06
12 *168:B1 *27:8 9.07716e-05
13 *169:A *214:A 5.99211e-05
14 *169:A *27:8 5.4959e-05
*RES
1 *168:Y *27:8 13.1393 
2 *27:8 *214:A 22.2286 
3 *27:8 *169:C_N 9.3 
*END

*D_NET *28 0.000595892
*CONN
*I *175:A1 I *D sky130_fd_sc_hd__a21bo_1
*I *169:X O *D sky130_fd_sc_hd__or3b_1
*CAP
1 *175:A1 0.00015915
2 *169:X 0.00015915
3 *175:A1 *175:A2 0.000101771
4 *175:A1 *197:A2 0.000124019
5 *175:A1 *63:8 4.4545e-05
6 *169:A *175:A1 7.25873e-06
*RES
1 *169:X *175:A1 30.6 
*END

*D_NET *29 0.000386611
*CONN
*I *172:A1 I *D sky130_fd_sc_hd__a21oi_1
*I *170:Y O *D sky130_fd_sc_hd__nand2_1
*CAP
1 *172:A1 4.32627e-05
2 *170:Y 4.32627e-05
3 *172:A1 *172:A2 0.000150043
4 *172:B1 *172:A1 0.000150043
*RES
1 *170:Y *172:A1 29.5464 
*END

*D_NET *30 0.00068592
*CONN
*I *172:A2 I *D sky130_fd_sc_hd__a21oi_1
*I *171:X O *D sky130_fd_sc_hd__a21o_1
*CAP
1 *172:A2 0.00015914
2 *171:X 0.00015914
3 *172:A2 *163:B_N 2.90421e-05
4 *172:A2 *174:C_N 3.13432e-05
5 *172:A2 *57:46 0.000119217
6 *172:A1 *172:A2 0.000150043
7 *172:B1 *172:A2 7.92596e-06
8 *26:18 *172:A2 3.00686e-05
*RES
1 *171:X *172:A2 31.975 
*END

*D_NET *31 0.000996047
*CONN
*I *180:A3 I *D sky130_fd_sc_hd__o31ai_2
*I *174:B I *D sky130_fd_sc_hd__or3b_1
*I *172:Y O *D sky130_fd_sc_hd__a21oi_1
*CAP
1 *180:A3 0.000130191
2 *174:B 6.95926e-05
3 *172:Y 0
4 *31:6 0.000199784
5 *180:A3 *180:A2 6.22529e-05
6 *180:A3 *197:C1 1.4796e-05
7 *169:A *180:A3 0.000122323
8 *172:B1 *174:B 7.89362e-05
9 *172:B1 *180:A3 5.90424e-05
10 *180:A1 *174:B 3.75959e-05
11 *180:A1 *180:A3 2.71964e-05
12 *16:14 *180:A3 0.000137639
13 *26:26 *174:B 5.66971e-05
*RES
1 *172:Y *31:6 13.8 
2 *31:6 *174:B 15.3714 
3 *31:6 *180:A3 17.55 
*END

*D_NET *32 0.000613056
*CONN
*I *174:C_N I *D sky130_fd_sc_hd__or3b_1
*I *173:X O *D sky130_fd_sc_hd__o31a_1
*CAP
1 *174:C_N 0.000209858
2 *173:X 0.000209858
3 *165:A *174:C_N 0.000118395
4 *172:A2 *174:C_N 3.13432e-05
5 *173:A1 *174:C_N 0
6 *180:A1 *174:C_N 5.54817e-06
7 *22:8 *174:C_N 1.74352e-05
8 *26:18 *174:C_N 2.06178e-05
*RES
1 *173:X *174:C_N 31.0107 
*END

*D_NET *33 0.00156902
*CONN
*I *175:A2 I *D sky130_fd_sc_hd__a21bo_1
*I *174:X O *D sky130_fd_sc_hd__or3b_1
*CAP
1 *175:A2 0.000316396
2 *174:X 0.000316396
3 *175:A2 *63:23 9.15842e-06
4 *175:A2 *63:29 0.00022367
5 *168:B1 *175:A2 0.000225367
6 *168:D1 *175:A2 4.08637e-05
7 *169:A *175:A2 0.000180207
8 *175:A1 *175:A2 0.000101771
9 *214:A *175:A2 3.33175e-05
10 *26:26 *175:A2 9.84673e-05
11 *27:8 *175:A2 2.34113e-05
*RES
1 *174:X *175:A2 35.3857 
*END

*D_NET *34 0.00255945
*CONN
*I *192:B I *D sky130_fd_sc_hd__and3_1
*I *193:A1 I *D sky130_fd_sc_hd__a21oi_1
*I *178:A I *D sky130_fd_sc_hd__and2_1
*I *175:X O *D sky130_fd_sc_hd__a21bo_1
*CAP
1 *192:B 0.000265185
2 *193:A1 0.000275325
3 *178:A 0
4 *175:X 0.000157522
5 *34:15 0.000573506
6 *34:6 0.000190519
7 *192:B *193:A2 1.03904e-05
8 *192:B *217:A 7.83587e-05
9 *192:B *36:19 0.000165759
10 *193:A1 *193:A2 0.000287327
11 *193:A1 *193:B1 1.00375e-05
12 *34:6 *178:B 5.49995e-05
13 *34:6 *179:A 0.0001871
14 count[0] *193:A1 0.000115233
15 *208:A *192:B 7.32272e-05
16 *210:A *192:B 2.35521e-05
17 *210:A *193:A1 9.14132e-05
*RES
1 *175:X *34:6 12.7107 
2 *34:6 *178:A 9.3 
3 *34:6 *34:15 5.03571 
4 *34:15 *193:A1 21.2107 
5 *34:15 *192:B 19.5321 
*END

*D_NET *35 0.00284689
*CONN
*I *184:A I *D sky130_fd_sc_hd__and3_1
*I *189:A I *D sky130_fd_sc_hd__and3_1
*I *177:B1 I *D sky130_fd_sc_hd__o21a_1
*I *176:Y O *D sky130_fd_sc_hd__inv_2
*CAP
1 *184:A 0
2 *189:A 0.000111153
3 *177:B1 0
4 *176:Y 0.00025639
5 *35:29 0.000411262
6 *35:14 0.000556499
7 *189:A *181:B1 4.77348e-05
8 *189:A *184:C 6.28435e-05
9 *189:A *200:RESET_B 0.000144773
10 *189:A *68:55 2.44318e-05
11 *35:14 *192:A 5.64117e-05
12 *35:14 *198:B1 0.000148182
13 *35:14 *203:CLK 0
14 *35:14 *203:D 8.00986e-05
15 *35:14 *206:A 0.000149904
16 *35:14 *36:6 5.52238e-05
17 *35:14 *61:6 5.52302e-05
18 *35:14 *61:10 9.71197e-05
19 *35:14 *62:47 9.60939e-05
20 *35:29 *181:A2 0.000193295
21 *35:29 *184:C 3.17148e-05
22 *35:29 *191:A 1.55885e-05
23 *35:29 *192:A 1.24368e-05
24 *35:29 *198:A1 5.52302e-05
25 *35:29 *38:12 7.80714e-06
26 *35:29 *61:10 3.94822e-05
27 *35:29 *61:16 0.000137983
28 *35:29 *68:31 0
*RES
1 *176:Y *35:14 24.675 
2 *35:14 *177:B1 9.3 
3 *35:14 *35:29 15.3036 
4 *35:29 *189:A 11.8893 
5 *35:29 *184:A 9.3 
*END

*D_NET *36 0.0034533
*CONN
*I *178:B I *D sky130_fd_sc_hd__and2_1
*I *193:A2 I *D sky130_fd_sc_hd__a21oi_1
*I *192:C I *D sky130_fd_sc_hd__and3_1
*I *177:X O *D sky130_fd_sc_hd__o21a_1
*CAP
1 *178:B 2.50978e-05
2 *193:A2 0.000351725
3 *192:C 0
4 *177:X 0.000120953
5 *36:19 0.00061776
6 *36:6 0.00036189
7 *193:A2 *193:B1 0.000134875
8 *193:A2 *197:A2 6.05161e-06
9 *193:A2 *63:62 0.000247149
10 *36:6 *192:A 0.000607317
11 *36:6 *197:A1 3.98547e-05
12 *36:6 *61:6 0.000139087
13 *36:19 *192:A 7.519e-05
14 *36:19 *203:RESET_B 0
15 *36:19 *217:A 2.60251e-05
16 *192:B *193:A2 1.03904e-05
17 *192:B *36:19 0.000165759
18 *193:A1 *193:A2 0.000287327
19 *208:A *36:6 0.000100914
20 *208:A *36:19 2.57148e-05
21 *34:6 *178:B 5.49995e-05
22 *35:14 *36:6 5.52238e-05
*RES
1 *177:X *36:6 15.1036 
2 *36:6 *192:C 9.3 
3 *36:6 *36:19 10.5179 
4 *36:19 *193:A2 22.9964 
5 *36:19 *178:B 14.3357 
*END

*D_NET *37 0.00194389
*CONN
*I *179:A I *D sky130_fd_sc_hd__clkbuf_1
*I *178:X O *D sky130_fd_sc_hd__and2_1
*CAP
1 *179:A 0.000489547
2 *178:X 0.000489547
3 *179:A *197:A2 0.000150773
4 *179:A *198:B1 0
5 *179:A *199:RESET_B 4.90803e-05
6 *179:A *203:D 0
7 *179:A *203:RESET_B 0.000577841
8 *34:6 *179:A 0.0001871
*RES
1 *178:X *179:A 39.6179 
*END

*D_NET *38 0.00325012
*CONN
*I *187:C1 I *D sky130_fd_sc_hd__o211a_1
*I *184:B I *D sky130_fd_sc_hd__and3_1
*I *189:B I *D sky130_fd_sc_hd__and3_1
*I *180:Y O *D sky130_fd_sc_hd__o31ai_2
*CAP
1 *187:C1 0.000201348
2 *184:B 0
3 *189:B 0.000166312
4 *180:Y 0.000417116
5 *38:16 0.000331579
6 *38:12 0.000783731
7 *187:C1 *183:B 0.000121423
8 *187:C1 *188:A2 4.1331e-06
9 *187:C1 *200:RESET_B 0
10 *187:C1 *40:29 0.000186304
11 *187:C1 *62:21 0
12 *189:B *181:B1 1.24368e-05
13 *189:B *183:A 3.99614e-06
14 *189:B *183:B 0
15 *189:B *68:27 5.33005e-05
16 *189:B *68:55 0.000225609
17 *38:12 *181:A2 0.000126439
18 *38:12 *182:C 8.17117e-05
19 *38:12 *183:B 8.6229e-06
20 *38:12 *184:C 0
21 *38:12 *61:16 2.84398e-05
22 *38:12 *67:33 1.00375e-05
23 *38:12 *67:52 0.000196454
24 *38:12 *68:31 0
25 *38:16 *181:B1 5.48726e-05
26 *38:16 *183:A 5.33334e-05
27 *191:B *38:12 0.000175118
28 *35:29 *38:12 7.80714e-06
*RES
1 *180:Y *38:12 23.4964 
2 *38:12 *38:16 6.67857 
3 *38:16 *189:B 12.7464 
4 *38:16 *184:B 9.3 
5 *38:12 *187:C1 17.8714 
*END

*D_NET *39 0.00060524
*CONN
*I *183:A I *D sky130_fd_sc_hd__nor2_1
*I *181:Y O *D sky130_fd_sc_hd__a21oi_1
*CAP
1 *183:A 0.00011988
2 *181:Y 0.00011988
3 *183:A *181:A1 4.09013e-05
4 *183:A *181:A2 9.35649e-05
5 *183:A *181:B1 2.37575e-05
6 *183:A *183:B 0.000149928
7 *189:B *183:A 3.99614e-06
8 *38:16 *183:A 5.33334e-05
*RES
1 *181:Y *183:A 22.5196 
*END

*D_NET *40 0.0044186
*CONN
*I *187:A2 I *D sky130_fd_sc_hd__o211a_1
*I *188:A2 I *D sky130_fd_sc_hd__a21o_1
*I *186:A2 I *D sky130_fd_sc_hd__a21oi_1
*I *183:B I *D sky130_fd_sc_hd__nor2_1
*I *182:X O *D sky130_fd_sc_hd__and3_1
*CAP
1 *187:A2 0
2 *188:A2 0.000814704
3 *186:A2 0
4 *183:B 0.000164231
5 *182:X 7.76654e-05
6 *40:40 0.000870714
7 *40:29 0.000146549
8 *40:10 0.000332435
9 *183:B *182:C 5.01544e-05
10 *183:B *184:C 0.000116699
11 *183:B *198:A1 2.51343e-06
12 *183:B *198:B1 0
13 *183:B *55:10 5.7661e-06
14 *188:A2 *201:CLK 0.000156249
15 *188:A2 *202:D 0
16 *188:A2 *205:A 0.000292203
17 *188:A2 *57:14 0
18 *188:A2 *58:10 3.03287e-05
19 *188:A2 *62:21 2.88424e-05
20 *40:10 *182:B 0.000114587
21 *40:10 *201:RESET_B 0
22 *40:10 *62:47 0.000258403
23 *40:29 *182:C 2.84494e-05
24 *40:29 *199:CLK 0
25 *40:29 *57:75 7.6644e-05
26 *40:29 *67:31 4.97121e-06
27 *40:40 *187:A1 2.99878e-05
28 *40:40 *187:B1 0.000149004
29 *40:40 *205:A 0.000197092
30 *183:A *183:B 0.000149928
31 *187:C1 *183:B 0.000121423
32 *187:C1 *188:A2 4.1331e-06
33 *187:C1 *40:29 0.000186304
34 *189:B *183:B 0
35 *38:12 *183:B 8.6229e-06
*RES
1 *182:X *40:10 16.4071 
2 *40:10 *183:B 17.9607 
3 *40:10 *40:29 7.05357 
4 *40:29 *186:A2 9.3 
5 *40:29 *40:40 2.625 
6 *40:40 *188:A2 39.0143 
7 *40:40 *187:A2 9.3 
*END

*D_NET *41 0.0012591
*CONN
*I *184:C I *D sky130_fd_sc_hd__and3_1
*I *183:Y O *D sky130_fd_sc_hd__nor2_1
*CAP
1 *184:C 0.000471696
2 *183:Y 0.000471696
3 *184:C *181:A2 9.11365e-06
4 *184:C *182:B 6.54117e-05
5 *184:C *182:C 1.90936e-05
6 *184:C *200:RESET_B 1.08359e-05
7 *184:C *68:31 0
8 *183:B *184:C 0.000116699
9 *189:A *184:C 6.28435e-05
10 *35:29 *184:C 3.17148e-05
11 *38:12 *184:C 0
*RES
1 *183:Y *184:C 38.5244 
*END

*D_NET *42 0.00159941
*CONN
*I *185:A I *D sky130_fd_sc_hd__buf_1
*I *184:X O *D sky130_fd_sc_hd__and3_1
*CAP
1 *185:A 0.000440302
2 *184:X 0.000440302
3 *185:A *190:A 6.11593e-05
4 *185:A *200:RESET_B 7.83587e-05
5 *185:A *201:CLK 0.000225533
6 *185:A *201:D 1.28171e-05
7 *185:A *219:A 0.000319725
8 *185:A *57:8 2.12143e-05
*RES
1 *184:X *185:A 36.2071 
*END

*D_NET *43 0.000602051
*CONN
*I *187:B1 I *D sky130_fd_sc_hd__o211a_1
*I *186:Y O *D sky130_fd_sc_hd__a21oi_1
*CAP
1 *187:B1 9.57964e-05
2 *186:Y 9.57964e-05
3 *187:B1 *186:B1 5.7661e-06
4 *187:B1 *187:A1 0.000173434
5 *187:B1 *205:A 8.22552e-05
6 *40:40 *187:B1 0.000149004
*RES
1 *186:Y *187:B1 22.3991 
*END

*D_NET *44 0.00104339
*CONN
*I *189:C I *D sky130_fd_sc_hd__and3_1
*I *188:X O *D sky130_fd_sc_hd__a21o_1
*CAP
1 *189:C 0.000220565
2 *188:X 0.000220565
3 *189:C *190:A 1.92528e-05
4 *189:C *200:RESET_B 0.000212654
5 *189:C *219:A 0.00012573
6 *189:C *58:21 0.000244628
*RES
1 *188:X *189:C 32.7964 
*END

*D_NET *45 0.00136793
*CONN
*I *190:A I *D sky130_fd_sc_hd__buf_1
*I *189:X O *D sky130_fd_sc_hd__and3_1
*CAP
1 *190:A 0.000242281
2 *189:X 0.000242281
3 *190:A *194:B 8.54714e-05
4 *190:A *201:CLK 0.000116286
5 *190:A *219:A 7.7738e-05
6 *190:A *57:8 0.000299114
7 *190:A *57:14 0.000224341
8 *190:A *58:10 0
9 *185:A *190:A 6.11593e-05
10 *189:C *190:A 1.92528e-05
*RES
1 *189:X *190:A 35.3321 
*END

*D_NET *46 0.000566577
*CONN
*I *198:A1 I *D sky130_fd_sc_hd__a21oi_1
*I *191:X O *D sky130_fd_sc_hd__or2_1
*CAP
1 *198:A1 0.00017268
2 *191:X 0.00017268
3 *198:A1 *198:A2 7.6644e-05
4 *198:A1 *55:10 9.33978e-07
5 *198:A1 *67:31 9.25014e-06
6 *198:A1 *67:33 7.6644e-05
7 *183:B *198:A1 2.51343e-06
8 *35:29 *198:A1 5.52302e-05
*RES
1 *191:X *198:A1 30.1179 
*END

*D_NET *47 0.00166802
*CONN
*I *197:A1 I *D sky130_fd_sc_hd__o2111ai_1
*I *192:X O *D sky130_fd_sc_hd__and3_1
*CAP
1 *197:A1 0.000354811
2 *192:X 0.000354811
3 *197:A1 *192:A 9.25014e-06
4 *197:A1 *197:A2 5.50052e-05
5 *197:A1 *203:CLK 5.33005e-05
6 *197:A1 *61:6 0.000300804
7 *197:A1 *61:10 5.33005e-05
8 *197:A1 *61:63 0.00017296
9 *197:A1 *63:29 0.00017296
10 *208:A *197:A1 0.00010096
11 *36:6 *197:A1 3.98547e-05
*RES
1 *192:X *197:A1 35.85 
*END

*D_NET *48 0.00257141
*CONN
*I *197:A2 I *D sky130_fd_sc_hd__o2111ai_1
*I *193:Y O *D sky130_fd_sc_hd__a21oi_1
*CAP
1 *197:A2 0.00108006
2 *193:Y 0.00108006
3 *197:A2 *193:B1 1.32552e-05
4 *197:A2 *203:CLK 4.37365e-05
5 *197:A2 *63:23 1.8441e-05
6 *197:A2 *63:62 0
7 *197:A2 *67:52 0
8 *168:A1 *197:A2 0
9 *175:A1 *197:A2 0.000124019
10 *179:A *197:A2 0.000150773
11 *193:A2 *197:A2 6.05161e-06
12 *197:A1 *197:A2 5.50052e-05
*RES
1 *193:Y *197:A2 44.2964 
*END

*D_NET *49 0.00118627
*CONN
*I *197:B1 I *D sky130_fd_sc_hd__o2111ai_1
*I *194:Y O *D sky130_fd_sc_hd__xnor2_1
*CAP
1 *197:B1 0.000305168
2 *194:Y 0.000305168
3 *197:B1 *197:D1 0.000528856
4 *197:B1 *198:A2 2.83425e-05
5 *197:B1 *203:CLK 1.87331e-05
*RES
1 *194:Y *197:B1 24.9036 
*END

*D_NET *50 0.00245181
*CONN
*I *197:C1 I *D sky130_fd_sc_hd__o2111ai_1
*I *195:Y O *D sky130_fd_sc_hd__xnor2_1
*CAP
1 *197:C1 0.000938246
2 *195:Y 0.000938246
3 *197:C1 *159:A 9.95908e-05
4 *197:C1 *160:A_N 6.97022e-05
5 *197:C1 *166:A 9.83388e-05
6 *197:C1 *197:D1 5.81003e-05
7 *197:C1 *198:A2 9.75679e-05
8 *197:C1 *65:8 3.10499e-05
9 *172:B1 *197:C1 2.85321e-05
10 *180:A3 *197:C1 1.4796e-05
11 *191:B *197:C1 3.54498e-05
12 *16:14 *197:C1 4.2189e-05
*RES
1 *195:Y *197:C1 39.975 
*END

*D_NET *51 0.00162774
*CONN
*I *197:D1 I *D sky130_fd_sc_hd__o2111ai_1
*I *196:Y O *D sky130_fd_sc_hd__xnor2_1
*CAP
1 *197:D1 0.000387569
2 *196:Y 0.000387569
3 *197:D1 *194:A 9.95908e-05
4 *197:D1 *194:B 5.49489e-05
5 *197:D1 *198:A2 2.85234e-05
6 *197:D1 *57:46 8.2586e-05
7 *197:B1 *197:D1 0.000528856
8 *197:C1 *197:D1 5.81003e-05
*RES
1 *196:Y *197:D1 27.9036 
*END

*D_NET *52 0.00134459
*CONN
*I *198:A2 I *D sky130_fd_sc_hd__a21oi_1
*I *197:Y O *D sky130_fd_sc_hd__o2111ai_1
*CAP
1 *198:A2 0.000232306
2 *197:Y 0.000232306
3 *198:A2 *203:CLK 0.000312029
4 *198:A2 *63:29 5.1876e-05
5 *198:A2 *67:31 3.70933e-05
6 *198:A2 *67:33 2.8046e-05
7 *198:A2 *67:52 0.000219861
8 *197:B1 *198:A2 2.83425e-05
9 *197:C1 *198:A2 9.75679e-05
10 *197:D1 *198:A2 2.85234e-05
11 *198:A1 *198:A2 7.6644e-05
*RES
1 *197:Y *198:A2 34.6536 
*END

*D_NET *53 0.0030731
*CONN
*I *205:A I *D sky130_fd_sc_hd__clkbuf_16
*I *206:A I *D sky130_fd_sc_hd__clkbuf_16
*I *204:X O *D sky130_fd_sc_hd__clkbuf_16
*CAP
1 *205:A 0.000458015
2 *206:A 0.000177519
3 *204:X 0.00023355
4 *53:10 0.000869083
5 *205:A *186:B1 8.00315e-05
6 *205:A *187:A1 3.38402e-05
7 *205:A *199:D 6.05161e-06
8 *205:A *71:10 7.15962e-05
9 *206:A *198:B1 4.73471e-05
10 *206:A *199:CLK 0.000109775
11 *206:A *203:CLK 2.42082e-05
12 *206:A *67:12 0.000170654
13 *53:10 *56:8 6.07232e-05
14 *53:10 *67:12 9.25014e-06
15 *187:B1 *205:A 8.22552e-05
16 *188:A2 *205:A 0.000292203
17 *35:14 *206:A 0.000149904
18 *40:40 *205:A 0.000197092
*RES
1 *204:X *53:10 17.2107 
2 *53:10 *206:A 19.0857 
3 *53:10 *205:A 24.9071 
*END

*D_NET *54 0.00339278
*CONN
*I *201:CLK I *D sky130_fd_sc_hd__dfrtp_2
*I *202:CLK I *D sky130_fd_sc_hd__dfrtp_1
*I *200:CLK I *D sky130_fd_sc_hd__dfrtp_1
*I *205:X O *D sky130_fd_sc_hd__clkbuf_16
*CAP
1 *201:CLK 0.000404933
2 *202:CLK 0.000334771
3 *200:CLK 0.000385823
4 *205:X 0
5 *54:6 0.000720594
6 *54:4 0.000404933
7 *200:CLK *195:B 7.83659e-05
8 *200:CLK *200:D 5.62995e-05
9 *200:CLK *202:D 0.000191877
10 *201:CLK *57:14 0
11 *201:CLK *58:10 6.93855e-05
12 *201:CLK *58:21 6.56312e-06
13 *202:CLK *202:D 0.000227692
14 count[1] *200:CLK 0
15 *185:A *201:CLK 0.000225533
16 *188:A2 *201:CLK 0.000156249
17 *190:A *201:CLK 0.000116286
18 *204:A *202:CLK 1.34703e-05
19 *209:A *202:CLK 0
*RES
1 *205:X *54:4 9.3 
2 *54:4 *54:6 4.5 
3 *54:6 *200:CLK 20.175 
4 *54:6 *202:CLK 19.2643 
5 *54:4 *201:CLK 26.5679 
*END

*D_NET *55 0.00331304
*CONN
*I *199:CLK I *D sky130_fd_sc_hd__dfrtp_4
*I *203:CLK I *D sky130_fd_sc_hd__dfrtp_1
*I *206:X O *D sky130_fd_sc_hd__clkbuf_16
*CAP
1 *199:CLK 0.000231699
2 *203:CLK 0.000254508
3 *206:X 0.000635175
4 *55:10 0.00112138
5 *199:CLK *67:31 0.0001008
6 *203:CLK *192:A 9.40167e-05
7 *203:CLK *63:29 0.00010326
8 *203:CLK *67:31 2.58997e-05
9 *55:10 *203:D 0.000177815
10 *183:B *55:10 5.7661e-06
11 *197:A1 *203:CLK 5.33005e-05
12 *197:A2 *203:CLK 4.37365e-05