*SPEF "ieee 1481-1999"
*DESIGN "flex_counter"
*DATE "11:11:11 Fri 11 11, 1111"
*VENDOR "OpenRCX"
*PROGRAM "Parallel Extraction"
*VERSION "1.0"
*DESIGN_FLOW "NAME_SCOPE LOCAL" "PIN_CAP NONE"
*DIVIDER /
*DELIMITER :
*BUS_DELIMITER []
*T_UNIT 1 NS
*C_UNIT 1 PF
*R_UNIT 1 OHM
*L_UNIT 1 HENRY

*NAME_MAP
*3 clear
*4 clk
*5 count[0]
*6 count[1]
*7 count[2]
*8 count[3]
*9 enable
*10 flag
*11 nRST
*12 rollover[0]
*13 rollover[1]
*14 rollover[2]
*15 rollover[3]
*16 _00_
*17 _01_
*18 _02_
*19 _03_
*20 _04_
*21 _05_
*22 _06_
*23 _07_
*24 _08_
*25 _09_
*26 _10_
*27 _11_
*28 _12_
*29 _13_
*30 _14_
*31 _15_
*32 _16_
*33 _17_
*34 _18_
*35 _19_
*36 _20_
*37 _21_
*38 _22_
*39 _23_
*40 _24_
*41 _25_
*42 _26_
*43 _27_
*44 _28_
*45 _29_
*46 _30_
*47 _31_
*48 _32_
*49 _33_
*50 _34_
*51 _35_
*52 _36_
*53 clknet_0_clk
*54 clknet_1_0__leaf_clk
*55 clknet_1_1__leaf_clk
*56 net1
*57 net10
*58 net11
*59 net12
*60 net13
*61 net2
*62 net3
*63 net4
*64 net5
*65 net6
*66 net7
*67 net8
*68 net9
*69 next_count\[0\]
*70 next_count\[1\]
*71 next_count\[2\]
*72 next_count\[3\]
*73 next_flag
*74 FILLER_0_0_11
*75 FILLER_0_0_19
*76 FILLER_0_0_27
*77 FILLER_0_0_29
*78 FILLER_0_0_3
*79 FILLER_0_0_37
*80 FILLER_0_0_45
*81 FILLER_0_0_53
*82 FILLER_0_0_57
*83 FILLER_0_0_64
*84 FILLER_0_10_15
*85 FILLER_0_10_23
*86 FILLER_0_10_27
*87 FILLER_0_10_29
*88 FILLER_0_10_37
*89 FILLER_0_10_48
*90 FILLER_0_10_57
*91 FILLER_0_10_7
*92 FILLER_0_1_18
*93 FILLER_0_1_26
*94 FILLER_0_1_35
*95 FILLER_0_1_46
*96 FILLER_0_1_6
*97 FILLER_0_1_63
*98 FILLER_0_2_54
*99 FILLER_0_2_6
*100 FILLER_0_3_25
*101 FILLER_0_3_54
*102 FILLER_0_3_62
*103 FILLER_0_4_18
*104 FILLER_0_4_27
*105 FILLER_0_4_29
*106 FILLER_0_4_44
*107 FILLER_0_4_9
*108 FILLER_0_5_11
*109 FILLER_0_5_19
*110 FILLER_0_5_27
*111 FILLER_0_5_3
*112 FILLER_0_5_62
*113 FILLER_0_7_53
*114 FILLER_0_7_57
*115 FILLER_0_8_23
*116 FILLER_0_8_27
*117 FILLER_0_8_41
*118 FILLER_0_9_23
*119 FILLER_0_9_45
*120 FILLER_0_9_53
*121 FILLER_0_9_57
*122 PHY_EDGE_ROW_0_Left_11
*123 PHY_EDGE_ROW_0_Right_0
*124 PHY_EDGE_ROW_10_Left_21
*125 PHY_EDGE_ROW_10_Right_10
*126 PHY_EDGE_ROW_1_Left_12
*127 PHY_EDGE_ROW_1_Right_1
*128 PHY_EDGE_ROW_2_Left_13
*129 PHY_EDGE_ROW_2_Right_2
*130 PHY_EDGE_ROW_3_Left_14
*131 PHY_EDGE_ROW_3_Right_3
*132 PHY_EDGE_ROW_4_Left_15
*133 PHY_EDGE_ROW_4_Right_4
*134 PHY_EDGE_ROW_5_Left_16
*135 PHY_EDGE_ROW_5_Right_5
*136 PHY_EDGE_ROW_6_Left_17
*137 PHY_EDGE_ROW_6_Right_6
*138 PHY_EDGE_ROW_7_Left_18
*139 PHY_EDGE_ROW_7_Right_7
*140 PHY_EDGE_ROW_8_Left_19
*141 PHY_EDGE_ROW_8_Right_8
*142 PHY_EDGE_ROW_9_Left_20
*143 PHY_EDGE_ROW_9_Right_9
*144 TAP_TAPCELL_ROW_0_22
*145 TAP_TAPCELL_ROW_0_23
*146 TAP_TAPCELL_ROW_10_33
*147 TAP_TAPCELL_ROW_10_34
*148 TAP_TAPCELL_ROW_1_24
*149 TAP_TAPCELL_ROW_2_25
*150 TAP_TAPCELL_ROW_3_26
*151 TAP_TAPCELL_ROW_4_27
*152 TAP_TAPCELL_ROW_5_28
*153 TAP_TAPCELL_ROW_6_29
*154 TAP_TAPCELL_ROW_7_30
*155 TAP_TAPCELL_ROW_8_31
*156 TAP_TAPCELL_ROW_9_32
*157 _37_
*158 _38_
*159 _39_
*160 _40_
*161 _41_
*162 _42_
*163 _43_
*164 _44_
*165 _45_
*166 _46_
*167 _47_
*168 _48_
*169 _49_
*170 _50_
*171 _51_
*172 _52_
*173 _53_
*174 _54_
*175 _55_
*176 _56_
*177 _57_
*178 _58_
*179 _59_
*180 _60_
*181 _61_
*182 _62_
*183 _63_
*184 _64_
*185 _65_
*186 _66_
*187 _67_
*188 _68_
*189 _69_
*190 _70_
*191 _71_
*192 _72_
*193 _73_
*194 _74_
*195 _75_
*196 _76_
*197 _77_
*198 _78_
*199 _79_
*200 _80_
*201 _81_
*202 _82_
*203 _83_
*204 clkbuf_0_clk
*205 clkbuf_1_0__f_clk
*206 clkbuf_1_1__f_clk
*207 input1
*208 input2
*209 input3
*210 input4
*211 input5
*212 input6
*213 input7
*214 max_cap13
*215 output10
*216 output11
*217 output12
*218 output8
*219 output9

*PORTS
clear I
clk I
count[0] O
count[1] O
count[2] O
count[3] O
enable I
flag O
nRST I
rollover[0] I
rollover[1] I
rollover[2] I
rollover[3] I

*D_NET *3 0.000922909
*CONN
*P clear I
*I *207:A I *D sky130_fd_sc_hd__buf_1
*CAP
1 clear 0.000461454
2 *207:A 0.000461454
*RES
1 clear *207:A 11.625 
*END

*D_NET *4 0.00198986
*CONN
*P clk I
*I *204:A I *D sky130_fd_sc_hd__clkbuf_16
*CAP
1 clk 0.000874745
2 *204:A 0.000874745
3 *204:A *202:CLK 1.32843e-05
4 *204:A *202:D 0.000124895
5 *204:A *209:A 8.36285e-05
6 *204:A *58:10 1.85613e-05
*RES
1 clk *204:A 13.1885 
*END

*D_NET *5 0.00135666
*CONN
*P count[0] O
*I *218:X O *D sky130_fd_sc_hd__buf_2
*CAP
1 count[0] 0.000501544
2 *218:X 0.000501544
3 count[0] *164:B_N 0.000180988
4 count[0] *193:A1 0.000105871
5 count[0] *210:A 6.67099e-05
*RES
1 *218:X count[0] 9.13503 
*END

*D_NET *6 0.000471299
*CONN
*P count[1] O
*I *219:X O *D sky130_fd_sc_hd__clkbuf_4
*CAP
1 count[1] 0.000198656
2 *219:X 0.000198656
3 count[1] count[2] 3.6993e-05
4 count[1] *200:CLK 0
5 count[1] *209:A 3.6993e-05
*RES
1 *219:X count[1] 6.64043 
*END

*D_NET *7 0.000908497
*CONN
*P count[2] O
*I *215:X O *D sky130_fd_sc_hd__clkbuf_4
*CAP
1 count[2] 0.000382955
2 *215:X 0.000382955
3 count[2] count[3] 0.000105593
4 count[2] *195:B 0
5 count[2] *209:A 0
6 count[1] count[2] 3.6993e-05
*RES
1 *215:X count[2] 8.9937 
*END

*D_NET *8 0.000805153
*CONN
*P count[3] O
*I *216:X O *D sky130_fd_sc_hd__clkbuf_4
*CAP
1 count[3] 0.000331782
2 *216:X 0.000331782
3 count[3] *212:A 3.59949e-05
4 count[2] count[3] 0.000105593
*RES
1 *216:X count[3] 7.93043 
*END

*D_NET *9 0.00117972
*CONN
*P enable I
*I *208:A I *D sky130_fd_sc_hd__dlymetal6s2s_1
*CAP
1 enable 0.000358034
2 *208:A 0.000358034
3 *208:A *192:A 1.47347e-05
4 *208:A *192:B 6.97118e-05
5 *208:A *197:A1 8.8266e-05
6 *208:A *210:A 6.48155e-05
7 *208:A *217:A 0.000106494
8 *208:A *36:6 9.51207e-05
9 *208:A *36:19 2.45107e-05
*RES
1 enable *208:A 9.07677 
*END

*D_NET *10 0.000714029
*CONN
*P flag O
*I *217:X O *D sky130_fd_sc_hd__clkbuf_4
*CAP
1 flag 0.000304059
2 *217:X 0.000304059
3 flag *217:A 0.000105911
*RES
1 *217:X flag 5.9833 
*END

*D_NET *11 0.000936426
*CONN
*P nRST I
*I *209:A I *D sky130_fd_sc_hd__clkbuf_2
*CAP
1 nRST 0.000407902
2 *209:A 0.000407902
3 *209:A *202:CLK 0
4 *209:A *202:D 0
5 *209:A *202:RESET_B 0
6 count[1] *209:A 3.6993e-05
7 count[2] *209:A 0
8 *204:A *209:A 8.36285e-05
*RES
1 nRST *209:A 8.22003 
*END

*D_NET *12 0.000721806
*CONN
*P rollover[0] I
*I *210:A I *D sky130_fd_sc_hd__dlymetal6s2s_1
*CAP
1 rollover[0] 0.000239343
2 *210:A 0.000239343
3 *210:A *192:B 2.28638e-05
4 *210:A *193:A1 8.87304e-05
5 count[0] *210:A 6.67099e-05
6 *208:A *210:A 6.48155e-05
*RES
1 rollover[0] *210:A 6.88677 
*END

*D_NET *13 0.000524571
*CONN
*P rollover[1] I
*I *211:A I *D sky130_fd_sc_hd__buf_1
*CAP
1 rollover[1] 0.000243789
2 *211:A 0.000243789
3 *211:A *213:A 3.6993e-05
*RES
1 rollover[1] *211:A 7.15043 
*END

*D_NET *14 0.000428773
*CONN
*P rollover[2] I
*I *212:A I *D sky130_fd_sc_hd__buf_1
*CAP
1 rollover[2] 0.000178391
2 *212:A 0.000178391
3 *212:A *213:A 3.59949e-05
4 count[3] *212:A 3.59949e-05
*RES
1 rollover[2] *212:A 4.84677 
*END

*D_NET *15 0.000438427
*CONN
*P rollover[3] I
*I *213:A I *D sky130_fd_sc_hd__buf_1
*CAP
1 rollover[3] 0.000182719
2 *213:A 0.000182719
3 *211:A *213:A 3.6993e-05
4 *212:A *213:A 3.59949e-05
*RES
1 rollover[3] *213:A 6.38543 
*END

*D_NET *16 0.00365968
*CONN
*I *169:A I *D sky130_fd_sc_hd__or3b_1
*I *191:B I *D sky130_fd_sc_hd__or2_1
*I *157:X O *D sky130_fd_sc_hd__or3_1
*CAP
1 *169:A 0.000387439
2 *191:B 0.000209213
3 *157:X 0.000438624
4 *16:14 0.00103528
5 *169:A *168:A2 1.12578e-05
6 *169:A *175:A1 6.72833e-06
7 *169:A *175:A2 0.000156778
8 *169:A *180:A2 9.17561e-05
9 *169:A *180:A3 0.000107408
10 *169:A *180:B1 1.79916e-05
11 *169:A *214:A 5.99161e-05
12 *169:A *27:8 5.09431e-05
13 *169:A *63:8 8.53011e-05
14 *169:A *63:29 3.54721e-05
15 *191:B *180:A1 5.0096e-05
16 *191:B *197:C1 3.54721e-05
17 *191:B *38:12 0.000176405
18 *191:B *68:31 0
19 *16:14 *157:B 4.71719e-05
20 *16:14 *160:A_N 0.000235335
21 *16:14 *160:B 3.12916e-05
22 *16:14 *161:B 8.6712e-06
23 *16:14 *172:B1 1.91597e-05
24 *16:14 *180:A3 0.000119873
25 *16:14 *197:C1 4.41933e-05
26 *16:14 *18:8 3.63701e-06
27 *16:14 *19:20 9.28686e-05
28 *16:14 *20:14 5.10477e-05
29 *16:14 *20:24 5.03554e-05
*RES
1 *157:X *16:14 13.385 
2 *16:14 *191:B 10.295 
3 *16:14 *169:A 12.83 
*END

*D_NET *17 0.000754868
*CONN
*I *168:A1 I *D sky130_fd_sc_hd__a2111oi_1
*I *158:Y O *D sky130_fd_sc_hd__inv_2
*CAP
1 *168:A1 0.000223771
2 *158:Y 0.000223771
3 *168:A1 *168:C1 6.20845e-05
4 *168:A1 *197:A2 0
5 *168:A1 *214:A 3.75882e-06
6 *168:A1 *67:65 0.000241483
*RES
1 *158:Y *168:A1 10.755 
*END

*D_NET *18 0.00176877
*CONN
*I *170:B I *D sky130_fd_sc_hd__nand2_1
*I *162:A2 I *D sky130_fd_sc_hd__a211o_1
*I *167:A1_N I *D sky130_fd_sc_hd__a2bb2o_1
*I *159:Y O *D sky130_fd_sc_hd__inv_2
*CAP
1 *170:B 5.50842e-05
2 *162:A2 0
3 *167:A1_N 0.000353366
4 *159:Y 5.48079e-05
5 *18:33 0.000124152
6 *18:8 0.000477241
7 *167:A1_N *26:18 0.00027918
8 *167:A1_N *64:12 9.96427e-06
9 *170:B *162:A1 8.23457e-05
10 *170:B *170:A 8.41384e-05
11 *170:B *21:6 8.41384e-05
12 *18:8 *163:B_N 3.56522e-05
13 *18:8 *19:20 4.94591e-05
14 *18:33 *162:A1 2.95366e-05
15 *18:33 *171:B1 1.14169e-05
16 *18:33 *19:20 2.46721e-05
17 *18:33 *20:24 9.97536e-06
18 *16:14 *18:8 3.63701e-06
*RES
1 *159:Y *18:8 4.8525 
2 *18:8 *167:A1_N 5.45317 
3 *18:8 *18:33 3.515 
4 *18:33 *162:A2 1.6 
5 *18:33 *170:B 3.085 
*END

*D_NET *19 0.00139036
*CONN
*I *171:B1 I *D sky130_fd_sc_hd__a21o_1
*I *162:B1 I *D sky130_fd_sc_hd__a211o_1
*I *160:X O *D sky130_fd_sc_hd__and2b_1
*CAP
1 *171:B1 0.00031626
2 *162:B1 0
3 *160:X 8.91224e-05
4 *19:20 0.000405383
5 *171:B1 *163:B_N 0.000109068
6 *171:B1 *20:14 0
7 *171:B1 *20:24 2.14005e-05
8 *171:B1 *22:8 0.000238404
9 *19:20 *162:A1 5.04875e-06
10 *19:20 *20:14 1.08758e-05
11 *19:20 *20:24 1.63764e-05
12 *16:14 *19:20 9.28686e-05
13 *18:8 *19:20 4.94591e-05
14 *18:33 *171:B1 1.14169e-05
15 *18:33 *19:20 2.46721e-05
*RES
1 *160:X *19:20 8.1125 
2 *19:20 *162:B1 1.6 
3 *19:20 *171:B1 11.015 
*END

*D_NET *20 0.00229467
*CONN
*I *162:C1 I *D sky130_fd_sc_hd__a211o_1
*I *174:A I *D sky130_fd_sc_hd__or3b_1
*I *180:A1 I *D sky130_fd_sc_hd__o31ai_2
*I *161:X O *D sky130_fd_sc_hd__and2b_1
*CAP
1 *162:C1 0
2 *174:A 0
3 *180:A1 0.000140755
4 *161:X 0.00018951
5 *20:24 0.000584499
6 *20:14 0.000633254
7 *180:A1 *172:B1 1.45617e-05
8 *180:A1 *173:A1 9.23804e-06
9 *180:A1 *174:B 3.72081e-05
10 *180:A1 *174:C_N 5.31158e-06
11 *180:A1 *180:A3 2.68037e-05
12 *180:A1 *21:6 4.77807e-05
13 *180:A1 *26:18 1.33106e-05
14 *20:14 *161:B 6.14757e-05
15 *20:14 *163:A 9.86483e-06
16 *20:24 *162:A1 0.000120878
17 *20:24 *170:A 0.000150653
18 *20:24 *21:6 3.94429e-05
19 *171:B1 *20:14 0
20 *171:B1 *20:24 2.14005e-05
21 *191:B *180:A1 5.0096e-05
22 *16:14 *20:14 5.10477e-05
23 *16:14 *20:24 5.03554e-05
24 *18:33 *20:24 9.97536e-06
25 *19:20 *20:14 1.08758e-05
26 *19:20 *20:24 1.63764e-05
*RES
1 *161:X *20:14 8.57 
2 *20:14 *20:24 10.165 
3 *20:24 *180:A1 8.45 
4 *20:24 *174:A 1.6 
5 *20:14 *162:C1 1.6 
*END

*D_NET *21 0.00154687
*CONN
*I *168:B1 I *D sky130_fd_sc_hd__a2111oi_1
*I *173:A1 I *D sky130_fd_sc_hd__o31a_1
*I *162:X O *D sky130_fd_sc_hd__a211o_1
*CAP
1 *168:B1 7.04934e-05
2 *173:A1 0.000136236
3 *162:X 0.000140186
4 *21:6 0.000346916
5 *168:B1 *175:A2 0.000195457
6 *168:B1 *26:26 2.01934e-05
7 *168:B1 *27:8 8.63252e-05
8 *173:A1 *165:A 4.5181e-05
9 *173:A1 *173:A2 4.24164e-05
10 *173:A1 *173:A3 5.46261e-05
11 *173:A1 *174:C_N 0
12 *21:6 *170:A 4.31979e-05
13 *21:6 *26:26 0.000185044
14 *170:B *21:6 8.41384e-05
15 *180:A1 *173:A1 9.23804e-06
16 *180:A1 *21:6 4.77807e-05
17 *20:24 *21:6 3.94429e-05
*RES
1 *162:X *21:6 5.155 
2 *21:6 *173:A1 8.405 
3 *21:6 *168:B1 3.775 
*END

*D_NET *22 0.00148971
*CONN
*I *165:A I *D sky130_fd_sc_hd__nand2_1
*I *171:A1 I *D sky130_fd_sc_hd__a21o_1
*I *163:X O *D sky130_fd_sc_hd__or2b_1
*CAP
1 *165:A 0.00011173
2 *171:A1 0
3 *163:X 0.000131341
4 *22:8 0.000243071
5 *165:A *165:B 1.31519e-05
6 *165:A *171:A2 0.000381913
7 *165:A *173:A2 4.12959e-05
8 *165:A *174:C_N 0.000104449
9 *165:A *67:65 8.25254e-05
10 *22:8 *163:B_N 4.77719e-05
11 *22:8 *171:A2 3.26889e-05
12 *22:8 *174:C_N 1.61831e-05
13 *171:B1 *22:8 0.000238404
14 *173:A1 *165:A 4.5181e-05
*RES
1 *163:X *22:8 4.825 
2 *22:8 *171:A1 1.6 
3 *22:8 *165:A 6.595 
*END

*D_NET *23 0.00169216
*CONN
*I *165:B I *D sky130_fd_sc_hd__nand2_1
*I *171:A2 I *D sky130_fd_sc_hd__a21o_1
*I *164:X O *D sky130_fd_sc_hd__or2b_1
*CAP
1 *165:B 1.309e-05
2 *171:A2 0.000234996
3 *164:X 0.000182078
4 *23:6 0.000430164
5 *165:B *67:65 0
6 *171:A2 *67:65 2.7441e-05
7 *23:6 *164:B_N 0.000191521
8 *23:6 *67:65 0.000136829
9 *23:6 *67:72 4.82919e-05
10 *165:A *165:B 1.31519e-05
11 *165:A *171:A2 0.000381913
12 *22:8 *171:A2 3.26889e-05
*RES
1 *164:X *23:6 5.845 
2 *23:6 *171:A2 6.475 
3 *23:6 *165:B 1.96 
*END

*D_NET *24 0.000696018
*CONN
*I *168:C1 I *D sky130_fd_sc_hd__a2111oi_1
*I *173:A2 I *D sky130_fd_sc_hd__o31a_1
*I *165:Y O *D sky130_fd_sc_hd__nand2_1
*CAP
1 *168:C1 4.15197e-05
2 *173:A2 0.000102067
3 *165:Y 3.12327e-05
4 *24:6 0.000174819
5 *168:C1 *67:52 0.000114963
6 *173:A2 *67:65 4.73147e-05
7 *24:6 *67:65 3.83041e-05
8 *165:A *173:A2 4.12959e-05
9 *168:A1 *168:C1 6.20845e-05
10 *173:A1 *173:A2 4.24164e-05
*RES
1 *165:Y *24:6 2.05 
2 *24:6 *173:A2 3.565 
3 *24:6 *168:C1 6.98 
*END

*D_NET *25 0.000677326
*CONN
*I *167:B2 I *D sky130_fd_sc_hd__a2bb2o_1
*I *166:Y O *D sky130_fd_sc_hd__inv_2
*CAP
1 *167:B2 0.000203404
2 *166:Y 0.000203404
3 *167:B2 *157:A 5.12969e-06
4 *167:B2 *160:B 4.1652e-06
5 *167:B2 *167:A2_N 8.35106e-05
6 *167:B2 *64:12 7.1624e-05
7 *167:B2 *65:8 8.398e-05
8 *167:B2 *66:12 2.21074e-05
*RES
1 *166:Y *167:B2 10.62 
*END

*D_NET *26 0.00367118
*CONN
*I *172:B1 I *D sky130_fd_sc_hd__a21oi_1
*I *168:D1 I *D sky130_fd_sc_hd__a2111oi_1
*I *173:A3 I *D sky130_fd_sc_hd__o31a_1
*I *167:X O *D sky130_fd_sc_hd__a2bb2o_1
*CAP
1 *172:B1 8.70063e-05
2 *168:D1 3.53659e-05
3 *173:A3 0.000121074
4 *167:X 0.000653131
5 *26:26 0.000382797
6 *26:18 0.000966495
7 *168:D1 *175:A2 3.57349e-05
8 *172:B1 *172:A1 0.000136052
9 *172:B1 *172:A2 7.58798e-06
10 *172:B1 *174:B 7.1624e-05
11 *172:B1 *180:A3 5.31433e-05
12 *172:B1 *197:C1 2.69217e-05
13 *173:A3 *67:52 0.000219264
14 *26:18 *157:A 4.77719e-05
15 *26:18 *161:B 5.8023e-05
16 *26:18 *172:A2 3.0015e-05
17 *26:18 *174:C_N 1.88656e-05
18 *26:26 *174:B 4.89395e-05
19 *26:26 *175:A2 8.52972e-05
20 *167:A1_N *26:18 0.00027918
21 *168:B1 *26:26 2.01934e-05
22 *173:A1 *173:A3 5.46261e-05
23 *180:A1 *172:B1 1.45617e-05
24 *180:A1 *26:18 1.33106e-05
25 *16:14 *172:B1 1.91597e-05
26 *21:6 *26:26 0.000185044
*RES
1 *167:X *26:18 7.447 
2 *26:18 *26:26 5.675 
3 *26:26 *173:A3 8.255 
4 *26:26 *168:D1 2.05 
5 *26:18 *172:B1 6.3 
*END

*D_NET *27 0.00112397
*CONN
*I *169:C_N I *D sky130_fd_sc_hd__or3b_1
*I *214:A I *D sky130_fd_sc_hd__clkbuf_1
*I *168:Y O *D sky130_fd_sc_hd__a2111oi_1
*CAP
1 *169:C_N 0
2 *214:A 0.000160778
3 *168:Y 0.000161186
4 *27:8 0.000321963
5 *214:A *175:A2 3.29269e-05
6 *214:A *175:B1_N 2.21074e-05
7 *214:A *180:B1 1.14192e-05
8 *214:A *63:23 7.03219e-05
9 *27:8 *168:A2 0.000119558
10 *27:8 *175:A2 2.27628e-05
11 *168:A1 *214:A 3.75882e-06
12 *168:B1 *27:8 8.63252e-05
13 *169:A *214:A 5.99161e-05
14 *169:A *27:8 5.09431e-05
*RES
1 *168:Y *27:8 4.825 
2 *27:8 *214:A 8.9 
3 *27:8 *169:C_N 1.6 
*END

*D_NET *28 0.000527946
*CONN
*I *175:A1 I *D sky130_fd_sc_hd__a21bo_1
*I *169:X O *D sky130_fd_sc_hd__or3b_1
*CAP
1 *175:A1 0.000136664
2 *169:X 0.000136664
3 *175:A1 *175:A2 9.23578e-05
4 *175:A1 *197:A2 0.000112595
5 *175:A1 *63:8 4.29365e-05
6 *169:A *175:A1 6.72833e-06
*RES
1 *169:X *175:A1 9.72 
*END

*D_NET *29 0.000345452
*CONN
*I *172:A1 I *D sky130_fd_sc_hd__a21oi_1
*I *170:Y O *D sky130_fd_sc_hd__nand2_1
*CAP
1 *172:A1 3.66741e-05
2 *170:Y 3.66741e-05
3 *172:A1 *172:A2 0.000136052
4 *172:B1 *172:A1 0.000136052
*RES
1 *170:Y *172:A1 8.835 
*END

*D_NET *30 0.000619128
*CONN
*I *172:A2 I *D sky130_fd_sc_hd__a21oi_1
*I *171:X O *D sky130_fd_sc_hd__a21o_1
*CAP
1 *172:A2 0.000132641
2 *171:X 0.000132641
3 *172:A2 *163:B_N 3.0313e-05
4 *172:A2 *174:C_N 3.28449e-05
5 *172:A2 *57:46 0.000117033
6 *172:A1 *172:A2 0.000136052
7 *172:B1 *172:A2 7.58798e-06
8 *26:18 *172:A2 3.0015e-05
*RES
1 *171:X *172:A2 10.875 
*END

*D_NET *31 0.000883862
*CONN
*I *180:A3 I *D sky130_fd_sc_hd__o31ai_2
*I *174:B I *D sky130_fd_sc_hd__or3b_1
*I *172:Y O *D sky130_fd_sc_hd__a21oi_1
*CAP
1 *180:A3 0.000114227
2 *174:B 5.91834e-05
3 *172:Y 0
4 *31:6 0.000173411
5 *180:A3 *180:A2 5.77732e-05
6 *180:A3 *197:C1 1.42674e-05
7 *169:A *180:A3 0.000107408
8 *172:B1 *174:B 7.1624e-05
9 *172:B1 *180:A3 5.31433e-05
10 *180:A1 *174:B 3.72081e-05
11 *180:A1 *180:A3 2.68037e-05
12 *16:14 *180:A3 0.000119873
13 *26:26 *174:B 4.89395e-05
*RES
1 *172:Y *31:6 3.6 
2 *31:6 *174:B 4.92 
3 *31:6 *180:A3 6.75 
*END

*D_NET *32 0.000543963
*CONN
*I *174:C_N I *D sky130_fd_sc_hd__or3b_1
*I *173:X O *D sky130_fd_sc_hd__o31a_1
*CAP
1 *174:C_N 0.000183154
2 *173:X 0.000183154
3 *165:A *174:C_N 0.000104449
4 *172:A2 *174:C_N 3.28449e-05
5 *173:A1 *174:C_N 0
6 *180:A1 *174:C_N 5.31158e-06
7 *22:8 *174:C_N 1.61831e-05
8 *26:18 *174:C_N 1.88656e-05
*RES
1 *173:X *174:C_N 10.065 
*END

*D_NET *33 0.00137819
*CONN
*I *175:A2 I *D sky130_fd_sc_hd__a21bo_1
*I *174:X O *D sky130_fd_sc_hd__or3b_1
*CAP
1 *175:A2 0.000277123
2 *174:X 0.000277123
3 *175:A2 *63:23 8.33066e-06
4 *175:A2 *63:29 0.000194295
5 *168:B1 *175:A2 0.000195457
6 *168:D1 *175:A2 3.57349e-05
7 *169:A *175:A2 0.000156778
8 *175:A1 *175:A2 9.23578e-05
9 *214:A *175:A2 3.29269e-05
10 *26:26 *175:A2 8.52972e-05
11 *27:8 *175:A2 2.27628e-05
*RES
1 *174:X *175:A2 13.74 
*END

*D_NET *34 0.00232597
*CONN
*I *192:B I *D sky130_fd_sc_hd__and3_1
*I *193:A1 I *D sky130_fd_sc_hd__a21oi_1
*I *178:A I *D sky130_fd_sc_hd__and2_1
*I *175:X O *D sky130_fd_sc_hd__a21bo_1
*CAP
1 *192:B 0.000232286
2 *193:A1 0.000239856
3 *178:A 0
4 *175:X 0.000146064
5 *34:15 0.000502031
6 *34:6 0.000175954
7 *192:B *193:A2 1.0397e-05
8 *192:B *217:A 7.23533e-05
9 *192:B *36:19 0.000160937
10 *193:A1 *193:A2 0.000279467
11 *193:A1 *193:B1 1.01661e-05
12 *34:6 *178:B 4.77769e-05
13 *34:6 *179:A 0.0001615
14 count[0] *193:A1 0.000105871
15 *208:A *192:B 6.97118e-05
16 *210:A *192:B 2.28638e-05
17 *210:A *193:A1 8.87304e-05
*RES
1 *175:X *34:6 4.465 
2 *34:6 *178:A 1.6 
3 *34:6 *34:15 2.45 
4 *34:15 *193:A1 9.825 
5 *34:15 *192:B 8.415 
*END

*D_NET *35 0.00253194
*CONN
*I *184:A I *D sky130_fd_sc_hd__and3_1
*I *189:A I *D sky130_fd_sc_hd__and3_1
*I *177:B1 I *D sky130_fd_sc_hd__o21a_1
*I *176:Y O *D sky130_fd_sc_hd__inv_2
*CAP
1 *184:A 0
2 *189:A 0.000100701
3 *177:B1 0
4 *176:Y 0.000216752
5 *35:29 0.000364998
6 *35:14 0.00048105
7 *189:A *181:B1 4.471e-05
8 *189:A *184:C 5.49479e-05
9 *189:A *200:RESET_B 0.00012657
10 *189:A *68:55 2.30292e-05
11 *35:14 *192:A 5.5108e-05
12 *35:14 *198:B1 0.00013687
13 *35:14 *203:CLK 0
14 *35:14 *203:D 7.89112e-05
15 *35:14 *206:A 0.000138544
16 *35:14 *36:6 4.82863e-05
17 *35:14 *61:6 4.82919e-05
18 *35:14 *61:10 8.49205e-05
19 *35:14 *62:47 8.40269e-05
20 *35:29 *181:A2 0.000174428
21 *35:29 *184:C 2.92496e-05
22 *35:29 *191:A 1.47256e-05
23 *35:29 *192:A 1.08758e-05
24 *35:29 *198:A1 4.82919e-05
25 *35:29 *38:12 8.09021e-06
26 *35:29 *61:10 3.79037e-05
27 *35:29 *61:16 0.000120655
28 *35:29 *68:31 0
*RES
1 *176:Y *35:14 10.955 
2 *35:14 *177:B1 1.6 
3 *35:14 *35:29 9.295 
4 *35:29 *189:A 3.775 
5 *35:29 *184:A 1.6 
*END

*D_NET *36 0.0031235
*CONN
*I *178:B I *D sky130_fd_sc_hd__and2_1
*I *193:A2 I *D sky130_fd_sc_hd__a21oi_1
*I *192:C I *D sky130_fd_sc_hd__and3_1
*I *177:X O *D sky130_fd_sc_hd__o21a_1
*CAP
1 *178:B 2.23024e-05
2 *193:A2 0.00030975
3 *192:C 0
4 *177:X 0.000104218
5 *36:19 0.000548202
6 *36:6 0.000320368
7 *193:A2 *193:B1 0.000124834
8 *193:A2 *197:A2 5.83121e-06
9 *193:A2 *63:62 0.000227875
10 *36:6 *192:A 0.000530994
11 *36:6 *197:A1 3.79854e-05
12 *36:6 *61:6 0.000131791
13 *36:19 *192:A 6.61578e-05
14 *36:19 *203:RESET_B 0
15 *36:19 *217:A 2.66939e-05
16 *192:B *193:A2 1.0397e-05
17 *192:B *36:19 0.000160937
18 *193:A1 *193:A2 0.000279467
19 *208:A *36:6 9.51207e-05
20 *208:A *36:19 2.45107e-05
21 *34:6 *178:B 4.77769e-05
22 *35:14 *36:6 4.82863e-05
*RES
1 *177:X *36:6 6.475 
2 *36:6 *192:C 1.6 
3 *36:6 *36:19 7.055 
4 *36:19 *193:A2 11.325 
5 *36:19 *178:B 4.05 
*END

*D_NET *37 0.00175335
*CONN
*I *179:A I *D sky130_fd_sc_hd__clkbuf_1
*I *178:X O *D sky130_fd_sc_hd__and2_1
*CAP
1 *179:A 0.000438651
2 *178:X 0.000438651
3 *179:A *197:A2 0.000136679
4 *179:A *198:B1 0
5 *179:A *199:RESET_B 4.54719e-05
6 *179:A *203:D 0
7 *179:A *203:RESET_B 0.0005324
8 *34:6 *179:A 0.0001615
*RES
1 *178:X *179:A 17.295 
*END

*D_NET *38 0.00291648
*CONN
*I *187:C1 I *D sky130_fd_sc_hd__o211a_1
*I *184:B I *D sky130_fd_sc_hd__and3_1
*I *189:B I *D sky130_fd_sc_hd__and3_1
*I *180:Y O *D sky130_fd_sc_hd__o31ai_2
*CAP
1 *187:C1 0.000174472
2 *184:B 0
3 *189:B 0.000150244
4 *180:Y 0.000355081
5 *38:16 0.000293129
6 *38:12 0.000672438
7 *187:C1 *183:B 0.000112154
8 *187:C1 *188:A2 4.18603e-06
9 *187:C1 *200:RESET_B 0
10 *187:C1 *40:29 0.000172151
11 *187:C1 *62:21 0
12 *189:B *181:B1 1.08758e-05
13 *189:B *183:A 4.00541e-06
14 *189:B *183:B 0
15 *189:B *68:27 4.66108e-05
16 *189:B *68:55 0.000197264
17 *38:12 *181:A2 0.000116853
18 *38:12 *182:C 8.1128e-05
19 *38:12 *183:B 7.9642e-06
20 *38:12 *184:C 0
21 *38:12 *61:16 2.78732e-05
22 *38:12 *67:33 1.01661e-05
23 *38:12 *67:52 0.000192739
24 *38:12 *68:31 0
25 *38:16 *181:B1 5.21092e-05
26 *38:16 *183:A 5.05437e-05
27 *191:B *38:12 0.000176405
28 *35:29 *38:12 8.09021e-06
*RES
1 *180:Y *38:12 11.745 
2 *38:12 *38:16 3.83 
3 *38:16 *189:B 4.495 
4 *38:16 *184:B 1.6 
5 *38:12 *187:C1 7.02 
*END

*D_NET *39 0.000534777
*CONN
*I *183:A I *D sky130_fd_sc_hd__nor2_1
*I *181:Y O *D sky130_fd_sc_hd__a21oi_1
*CAP
1 *183:A 0.000103015
2 *181:Y 0.000103015
3 *183:A *181:A1 3.87681e-05
4 *183:A *181:A2 8.24414e-05
5 *183:A *181:B1 2.11921e-05
6 *183:A *183:B 0.000131797
7 *189:B *183:A 4.00541e-06
8 *38:16 *183:A 5.05437e-05
*RES
1 *181:Y *183:A 6.4925 
*END

*D_NET *40 0.00392878
*CONN
*I *187:A2 I *D sky130_fd_sc_hd__o211a_1
*I *188:A2 I *D sky130_fd_sc_hd__a21o_1
*I *186:A2 I *D sky130_fd_sc_hd__a21oi_1
*I *183:B I *D sky130_fd_sc_hd__nor2_1
*I *182:X O *D sky130_fd_sc_hd__and3_1
*CAP
1 *187:A2 0
2 *188:A2 0.000711827
3 *186:A2 0
4 *183:B 0.000140874
5 *182:X 6.56428e-05
6 *40:40 0.000761225
7 *40:29 0.00012504
8 *40:10 0.000282159
9 *183:B *182:C 4.95602e-05
10 *183:B *184:C 0.000102881
11 *183:B *198:A1 2.65814e-06
12 *183:B *198:B1 0
13 *183:B *55:10 5.4155e-06
14 *188:A2 *201:CLK 0.000143849
15 *188:A2 *202:D 0
16 *188:A2 *205:A 0.000270966
17 *188:A2 *57:14 0
18 *188:A2 *58:10 3.16246e-05
19 *188:A2 *62:21 2.96553e-05
20 *40:10 *182:B 0.000109386
21 *40:10 *201:RESET_B 0
22 *40:10 *62:47 0.000227389
23 *40:29 *182:C 2.7881e-05
24 *40:29 *199:CLK 0
25 *40:29 *57:75 7.06865e-05
26 *40:29 *67:31 5.11148e-06
27 *40:40 *187:A1 2.7801e-05
28 *40:40 *187:B1 0.000136157
29 *40:40 *205:A 0.000172739
30 *183:A *183:B 0.000131797
31 *187:C1 *183:B 0.000112154
32 *187:C1 *188:A2 4.18603e-06
33 *187:C1 *40:29 0.000172151
34 *189:B *183:B 0
35 *38:12 *183:B 7.9642e-06
*RES
1 *182:X *40:10 5.79 
2 *40:10 *183:B 7.095 
3 *40:10 *40:29 4.145 
4 *40:29 *186:A2 1.6 
5 *40:29 *40:40 2.205 
6 *40:40 *188:A2 19.44 
7 *40:40 *187:A2 1.6 
*END

*D_NET *41 0.00113033
*CONN
*I *184:C I *D sky130_fd_sc_hd__and3_1
*I *183:Y O *D sky130_fd_sc_hd__nor2_1
*CAP
1 *184:C 0.000422604
2 *183:Y 0.000422604
3 *184:C *181:A2 9.3062e-06
4 *184:C *182:B 6.03272e-05
5 *184:C *182:C 1.7635e-05
6 *184:C *200:RESET_B 1.07797e-05
7 *184:C *68:31 0
8 *183:B *184:C 0.000102881
9 *189:A *184:C 5.49479e-05
10 *35:29 *184:C 2.92496e-05
11 *38:12 *184:C 0
*RES
1 *183:Y *184:C 11.6326 
*END

*D_NET *42 0.00141564
*CONN
*I *185:A I *D sky130_fd_sc_hd__buf_1
*I *184:X O *D sky130_fd_sc_hd__and3_1
*CAP
1 *185:A 0.000387453
2 *184:X 0.000387453
3 *185:A *190:A 5.94751e-05
4 *185:A *200:RESET_B 7.23533e-05
5 *185:A *201:CLK 0.000196223
6 *185:A *201:D 1.33205e-05
7 *185:A *219:A 0.000278413
8 *185:A *57:8 2.09482e-05
*RES
1 *184:X *185:A 14.43 
*END

*D_NET *43 0.000536843
*CONN
*I *187:B1 I *D sky130_fd_sc_hd__o211a_1
*I *186:Y O *D sky130_fd_sc_hd__a21oi_1
*CAP
1 *187:B1 8.40276e-05
2 *186:Y 8.40276e-05
3 *187:B1 *186:B1 5.4155e-06
4 *187:B1 *187:A1 0.000154118
5 *187:B1 *205:A 7.30975e-05
6 *40:40 *187:B1 0.000136157
*RES
1 *186:Y *187:B1 6.39125 
*END

*D_NET *44 0.000928957
*CONN
*I *189:C I *D sky130_fd_sc_hd__and3_1
*I *188:X O *D sky130_fd_sc_hd__a21o_1
*CAP
1 *189:C 0.000191896
2 *188:X 0.000191896
3 *189:C *190:A 2.04583e-05
4 *189:C *200:RESET_B 0.000184239
5 *189:C *219:A 0.00011432
6 *189:C *58:21 0.000226147
*RES
1 *188:X *189:C 11.565 
*END

*D_NET *45 0.00122244
*CONN
*I *190:A I *D sky130_fd_sc_hd__buf_1
*I *189:X O *D sky130_fd_sc_hd__and3_1
*CAP
1 *190:A 0.000208426
2 *189:X 0.000208426
3 *190:A *194:B 8.40315e-05
4 *190:A *201:CLK 0.000110213
5 *190:A *219:A 7.66847e-05
6 *190:A *57:8 0.000259839
7 *190:A *57:14 0.000194891
8 *190:A *58:10 0
9 *185:A *190:A 5.94751e-05
10 *189:C *190:A 2.04583e-05
*RES
1 *189:X *190:A 13.695 
*END

*D_NET *46 0.000494227
*CONN
*I *198:A1 I *D sky130_fd_sc_hd__a21oi_1
*I *191:X O *D sky130_fd_sc_hd__or2_1
*CAP
1 *198:A1 0.000146206
2 *191:X 0.000146206
3 *198:A1 *198:A2 7.06865e-05
4 *198:A1 *55:10 9.60582e-07
5 *198:A1 *67:31 8.53113e-06
6 *198:A1 *67:33 7.06865e-05
7 *183:B *198:A1 2.65814e-06
8 *35:29 *198:A1 4.82919e-05
*RES
1 *191:X *198:A1 9.315 
*END

*D_NET *47 0.00148675
*CONN
*I *197:A1 I *D sky130_fd_sc_hd__o2111ai_1
*I *192:X O *D sky130_fd_sc_hd__and3_1
*CAP
1 *197:A1 0.000315136
2 *192:X 0.000315136
3 *197:A1 *192:A 8.53113e-06
4 *197:A1 *197:A2 4.77807e-05
5 *197:A1 *203:CLK 4.66108e-05
6 *197:A1 *61:6 0.000263002
7 *197:A1 *61:10 4.66108e-05
8 *197:A1 *61:63 0.000158845
9 *197:A1 *63:29 0.000158845
10 *208:A *197:A1 8.8266e-05
11 *36:6 *197:A1 3.79854e-05
*RES
1 *192:X *197:A1 14.13 
*END

*D_NET *48 0.00230696
*CONN
*I *197:A2 I *D sky130_fd_sc_hd__o2111ai_1
*I *193:Y O *D sky130_fd_sc_hd__a21oi_1
*CAP
1 *197:A2 0.000964923
2 *193:Y 0.000964923
3 *197:A2 *193:B1 1.33293e-05
4 *197:A2 *203:CLK 4.12711e-05
5 *197:A2 *63:23 1.96308e-05
6 *197:A2 *63:62 0
7 *197:A2 *67:52 0
8 *168:A1 *197:A2 0
9 *175:A1 *197:A2 0.000112595
10 *179:A *197:A2 0.000136679
11 *193:A2 *197:A2 5.83121e-06
12 *197:A1 *197:A2 4.77807e-05
*RES
1 *193:Y *197:A2 21.225 
*END

*D_NET *49 0.00105644
*CONN
*I *197:B1 I *D sky130_fd_sc_hd__o2111ai_1
*I *194:Y O *D sky130_fd_sc_hd__xnor2_1
*CAP
1 *197:B1 0.000276806
2 *194:Y 0.000276806
3 *197:B1 *197:D1 0.000457563
4 *197:B1 *198:A2 2.747e-05
5 *197:B1 *203:CLK 1.77945e-05
*RES
1 *194:Y *197:B1 8.495 
*END

*D_NET *50 0.00215978
*CONN
*I *197:C1 I *D sky130_fd_sc_hd__o2111ai_1
*I *195:Y O *D sky130_fd_sc_hd__xnor2_1
*CAP
1 *197:C1 0.000810279
2 *195:Y 0.000810279
3 *197:C1 *159:A 9.29648e-05
4 *197:C1 *160:A_N 6.71711e-05
5 *197:C1 *166:A 8.52845e-05
6 *197:C1 *197:D1 5.61466e-05
7 *197:C1 *198:A2 8.46818e-05
8 *197:C1 *65:8 3.21182e-05
9 *172:B1 *197:C1 2.69217e-05
10 *180:A3 *197:C1 1.42674e-05
11 *191:B *197:C1 3.54721e-05
12 *16:14 *197:C1 4.41933e-05
*RES
1 *195:Y *197:C1 17.595 
*END

*D_NET *51 0.00145534
*CONN
*I *197:D1 I *D sky130_fd_sc_hd__o2111ai_1
*I *196:Y O *D sky130_fd_sc_hd__xnor2_1
*CAP
1 *197:D1 0.00034739
2 *196:Y 0.00034739
3 *197:D1 *194:A 9.29648e-05
4 *197:D1 *194:B 4.77719e-05
5 *197:D1 *198:A2 2.69153e-05
6 *197:D1 *57:46 7.91957e-05
7 *197:B1 *197:D1 0.000457563
8 *197:C1 *197:D1 5.61466e-05
*RES
1 *196:Y *197:D1 11.015 
*END

*D_NET *52 0.00120485
*CONN
*I *198:A2 I *D sky130_fd_sc_hd__a21oi_1
*I *197:Y O *D sky130_fd_sc_hd__o2111ai_1
*CAP
1 *198:A2 0.000196185
2 *197:Y 0.000196185
3 *198:A2 *203:CLK 0.000288309
4 *198:A2 *63:29 4.99605e-05
5 *198:A2 *67:31 3.48914e-05
6 *198:A2 *67:33 2.79004e-05
7 *198:A2 *67:52 0.000201664
8 *197:B1 *198:A2 2.747e-05
9 *197:C1 *198:A2 8.46818e-05
10 *197:D1 *198:A2 2.69153e-05
11 *198:A1 *198:A2 7.06865e-05
*RES
1 *197:Y *198:A2 13.125 
*END

*D_NET *53 0.00278296
*CONN
*I *205:A I *D sky130_fd_sc_hd__clkbuf_16
*I *206:A I *D sky130_fd_sc_hd__clkbuf_16
*I *204:X O *D sky130_fd_sc_hd__clkbuf_16
*CAP
1 *205:A 0.000415583
2 *206:A 0.000148008
3 *204:X 0.000206285
4 *53:10 0.000769876
5 *205:A *186:B1 7.5277e-05
6 *205:A *187:A1 3.03482e-05
7 *205:A *199:D 5.83121e-06
8 *205:A *71:10 6.69341e-05
9 *206:A *198:B1 4.55632e-05
10 *206:A *199:CLK 0.000114044
11 *206:A *203:CLK 2.45182e-05
12 *206:A *67:12 0.000157595
13 *53:10 *56:8 5.92191e-05
14 *53:10 *67:12 8.53113e-06
15 *187:B1 *205:A 7.30975e-05
16 *188:A2 *205:A 0.000270966
17 *35:14 *206:A 0.000138544
18 *40:40 *205:A 0.000172739
*RES
1 *204:X *53:10 6.465 
2 *53:10 *206:A 8.04 
3 *53:10 *205:A 12.93 
*END

*D_NET *54 0.00304739
*CONN
*I *201:CLK I *D sky130_fd_sc_hd__dfrtp_2
*I *202:CLK I *D sky130_fd_sc_hd__dfrtp_1
*I *200:CLK I *D sky130_fd_sc_hd__dfrtp_1
*I *205:X O *D sky130_fd_sc_hd__clkbuf_16
*CAP
1 *201:CLK 0.000358998
2 *202:CLK 0.000295326
3 *200:CLK 0.000341567
4 *205:X 0
5 *54:6 0.000636894
6 *54:4 0.000358998
7 *200:CLK *195:B 7.23602e-05
8 *200:CLK *200:D 5.30673e-05
9 *200:CLK *202:D 0.000177568
10 *201:CLK *57:14 0
11 *201:CLK *58:10 6.89716e-05
12 *201:CLK *58:21 6.95473e-06
13 *202:CLK *202:D 0.000213116
14 count[1] *200:CLK 0
15 *185:A *201:CLK 0.000196223
16 *188:A2 *201:CLK 0.000143849
17 *190:A *201:CLK 0.000110213
18 *204:A *202:CLK 1.32843e-05
19 *209:A *202:CLK 0
*RES
1 *205:X *54:4 1.6 
2 *54:4 *54:6 2 
3 *54:6 *200:CLK 8.955 
4 *54:6 *202:CLK 8.19 
5 *54:4 *201:CLK 12.545 
*END

*D_NET *55 0.00294745
*CONN
*I *199:CLK I *D sky130_fd_sc_hd__dfrtp_4
*I *203:CLK I *D sky130_fd_sc_hd__dfrtp_1
*I *206:X O *D sky130_fd_sc_hd__clkbuf_16
*CAP
1 *199:CLK 0.000193463
2 *203:CLK 0.000220193
3 *206:X 0.000559342
4 *55:10 0.000972999
5 *199:CLK *67:31 9.96816e-05
6 *203:CLK *192:A 8.69157e-05
7 *203:CLK *63:29 9.54399e-05
8 *203:CLK *67:31 2.4997e-05
9 *55:10 *203:D 0.000155491
10 *183:B *55:10 5.4155e-06
11 *197:A1 *203:CLK 4.66108e-05
12 *197:A2 *203:CLK 4.12711e-05
13 *197:B1 *203:CLK 1.77945e-05
14 *198:A1 *55:10 9.60582e-07
15 *198:A2 *203:CLK 0.000288309
16 *206:A *199:CLK 0.000114044