* NGSPICE file created from flex_counter.ext - technology: sky130A

.subckt sky130_fd_sc_hd__dfrtp_1 CLK D RESET_B VGND VNB VPB VPWR Q
X0 a_1217_47# a_27_47# a_1108_47# VNB sky130_fd_pr__nfet_01v8 ad=0.0669 pd=0.75 as=0.0711 ps=0.755 w=0.36 l=0.15
X1 a_805_47# a_761_289# a_639_47# VNB sky130_fd_pr__nfet_01v8 ad=0.0441 pd=0.63 as=0.14 ps=1.1 w=0.42 l=0.15
X2 a_1108_47# a_193_47# a_761_289# VNB sky130_fd_pr__nfet_01v8 ad=0.0711 pd=0.755 as=0.0999 ps=0.985 w=0.36 l=0.15
X3 a_1283_21# a_1108_47# a_1462_47# VNB sky130_fd_pr__nfet_01v8 ad=0.109 pd=1.36 as=0.064 ps=0.725 w=0.42 l=0.15
X4 a_651_413# a_27_47# a_543_47# VPB sky130_fd_pr__pfet_01v8_hvt ad=0.116 pd=0.97 as=0.0724 ps=0.765 w=0.42 l=0.15
X5 VGND RESET_B a_805_47# VNB sky130_fd_pr__nfet_01v8 ad=0.135 pd=1.15 as=0.0441 ps=0.63 w=0.42 l=0.15
X6 Q a_1283_21# VPWR VPB sky130_fd_pr__pfet_01v8_hvt ad=0.26 pd=2.52 as=0.301 ps=2.66 w=1 l=0.15
X7 VPWR CLK a_27_47# VPB sky130_fd_pr__pfet_01v8_hvt ad=0.0864 pd=0.91 as=0.166 ps=1.8 w=0.64 l=0.15
X8 a_448_47# D VPWR VPB sky130_fd_pr__pfet_01v8_hvt ad=0.0651 pd=0.73 as=0.109 ps=1.36 w=0.42 l=0.15
X9 a_761_289# a_543_47# VGND VNB sky130_fd_pr__nfet_01v8 ad=0.0999 pd=0.985 as=0.135 ps=1.15 w=0.64 l=0.15
X10 a_193_47# a_27_47# VGND VNB sky130_fd_pr__nfet_01v8 ad=0.109 pd=1.36 as=0.0567 ps=0.69 w=0.42 l=0.15
X11 a_1108_47# a_27_47# a_761_289# VPB sky130_fd_pr__pfet_01v8_hvt ad=0.0588 pd=0.7 as=0.129 ps=1.18 w=0.42 l=0.15
X12 a_543_47# a_27_47# a_448_47# VNB sky130_fd_pr__nfet_01v8 ad=0.0594 pd=0.69 as=0.066 ps=0.745 w=0.36 l=0.15
X13 a_1462_47# RESET_B VGND VNB sky130_fd_pr__nfet_01v8 ad=0.064 pd=0.725 as=0.125 ps=1.01 w=0.42 l=0.15
X14 a_543_47# a_193_47# a_448_47# VPB sky130_fd_pr__pfet_01v8_hvt ad=0.0724 pd=0.765 as=0.0651 ps=0.73 w=0.42 l=0.15
X15 a_448_47# D VGND VNB sky130_fd_pr__nfet_01v8 ad=0.066 pd=0.745 as=0.221 ps=1.89 w=0.42 l=0.15
X16 VPWR a_1283_21# a_1270_413# VPB sky130_fd_pr__pfet_01v8_hvt ad=0.0819 pd=0.81 as=0.0567 ps=0.69 w=0.42 l=0.15
X17 VPWR a_1108_47# a_1283_21# VPB sky130_fd_pr__pfet_01v8_hvt ad=0.113 pd=1.38 as=0.0567 ps=0.69 w=0.42 l=0.15
X18 a_1270_413# a_193_47# a_1108_47# VPB sky130_fd_pr__pfet_01v8_hvt ad=0.0567 pd=0.69 as=0.0588 ps=0.7 w=0.42 l=0.15
X19 a_193_47# a_27_47# VPWR VPB sky130_fd_pr__pfet_01v8_hvt ad=0.166 pd=1.8 as=0.0864 ps=0.91 w=0.64 l=0.15
X20 a_1283_21# RESET_B VPWR VPB sky130_fd_pr__pfet_01v8_hvt ad=0.0567 pd=0.69 as=0.0819 ps=0.81 w=0.42 l=0.15
X21 VPWR a_761_289# a_651_413# VPB sky130_fd_pr__pfet_01v8_hvt ad=0.0703 pd=0.755 as=0.116 ps=0.97 w=0.42 l=0.15
X22 Q a_1283_21# VGND VNB sky130_fd_pr__nfet_01v8 ad=0.169 pd=1.82 as=0.209 ps=2.02 w=0.65 l=0.15
X23 a_639_47# a_193_47# a_543_47# VNB sky130_fd_pr__nfet_01v8 ad=0.14 pd=1.1 as=0.0594 ps=0.69 w=0.36 l=0.15
X24 VGND a_1283_21# a_1217_47# VNB sky130_fd_pr__nfet_01v8 ad=0.125 pd=1.01 as=0.0669 ps=0.75 w=0.42 l=0.15
X25 a_651_413# RESET_B VPWR VPB sky130_fd_pr__pfet_01v8_hvt ad=0.109 pd=1.36 as=0.0703 ps=0.755 w=0.42 l=0.15
X26 VGND CLK a_27_47# VNB sky130_fd_pr__nfet_01v8 ad=0.0567 pd=0.69 as=0.109 ps=1.36 w=0.42 l=0.15
X27 a_761_289# a_543_47# VPWR VPB sky130_fd_pr__pfet_01v8_hvt ad=0.129 pd=1.18 as=0.218 ps=2.2 w=0.84 l=0.15
.ends

.subckt sky130_fd_sc_hd__a21oi_1 A1 A2 B1 VGND VNB VPB VPWR Y
X0 a_199_47# A1 Y VNB sky130_fd_pr__nfet_01v8 ad=0.0959 pd=0.945 as=0.091 ps=0.93 w=0.65 l=0.15
X1 a_113_297# A2 VPWR VPB sky130_fd_pr__pfet_01v8_hvt ad=0.265 pd=2.53 as=0.147 ps=1.29 w=1 l=0.15
X2 Y B1 VGND VNB sky130_fd_pr__nfet_01v8 ad=0.091 pd=0.93 as=0.172 ps=1.83 w=0.65 l=0.15
X3 VPWR A1 a_113_297# VPB sky130_fd_pr__pfet_01v8_hvt ad=0.147 pd=1.29 as=0.14 ps=1.28 w=1 l=0.15
X4 a_113_297# B1 Y VPB sky130_fd_pr__pfet_01v8_hvt ad=0.14 pd=1.28 as=0.265 ps=2.53 w=1 l=0.15
X5 VGND A2 a_199_47# VNB sky130_fd_pr__nfet_01v8 ad=0.172 pd=1.83 as=0.0959 ps=0.945 w=0.65 l=0.15
.ends

.subckt sky130_fd_sc_hd__decap_8 VGND VNB VPB VPWR
X0 VPWR VGND VPWR VPB sky130_fd_pr__pfet_01v8_hvt ad=0.226 pd=2.26 as=0 ps=0 w=0.87 l=2.89
X1 VGND VPWR VGND VNB sky130_fd_pr__nfet_01v8 ad=0.143 pd=1.62 as=0 ps=0 w=0.55 l=2.89
.ends

.subckt sky130_fd_sc_hd__or3b_1 A B C_N VGND VNB VPB VPWR X
X0 a_109_93# C_N VGND VNB sky130_fd_pr__nfet_01v8 ad=0.109 pd=1.36 as=0.109 ps=1.36 w=0.42 l=0.15
X1 a_215_53# B VGND VNB sky130_fd_pr__nfet_01v8 ad=0.0567 pd=0.69 as=0.0567 ps=0.69 w=0.42 l=0.15
X2 VGND a_109_93# a_215_53# VNB sky130_fd_pr__nfet_01v8 ad=0.0567 pd=0.69 as=0.109 ps=1.36 w=0.42 l=0.15
X3 VGND A a_215_53# VNB sky130_fd_pr__nfet_01v8 ad=0.1 pd=0.985 as=0.0567 ps=0.69 w=0.42 l=0.15
X4 VPWR A a_369_297# VPB sky130_fd_pr__pfet_01v8_hvt ad=0.148 pd=1.34 as=0.0683 ps=0.745 w=0.42 l=0.15
X5 a_369_297# B a_297_297# VPB sky130_fd_pr__pfet_01v8_hvt ad=0.0683 pd=0.745 as=0.0441 ps=0.63 w=0.42 l=0.15
X6 X a_215_53# VPWR VPB sky130_fd_pr__pfet_01v8_hvt ad=0.275 pd=2.55 as=0.148 ps=1.34 w=1 l=0.15
X7 a_297_297# a_109_93# a_215_53# VPB sky130_fd_pr__pfet_01v8_hvt ad=0.0441 pd=0.63 as=0.109 ps=1.36 w=0.42 l=0.15
X8 a_109_93# C_N VPWR VPB sky130_fd_pr__pfet_01v8_hvt ad=0.109 pd=1.36 as=0.109 ps=1.36 w=0.42 l=0.15
X9 X a_215_53# VGND VNB sky130_fd_pr__nfet_01v8 ad=0.179 pd=1.85 as=0.1 ps=0.985 w=0.65 l=0.15
.ends

.subckt sky130_fd_sc_hd__buf_1 A VGND VNB VPB VPWR X
X0 VPWR A a_27_47# VPB sky130_fd_pr__pfet_01v8_hvt ad=0.115 pd=1.08 as=0.205 ps=2.1 w=0.79 l=0.15
X1 X a_27_47# VGND VNB sky130_fd_pr__nfet_01v8 ad=0.135 pd=1.56 as=0.0754 ps=0.81 w=0.52 l=0.15
X2 X a_27_47# VPWR VPB sky130_fd_pr__pfet_01v8_hvt ad=0.205 pd=2.1 as=0.115 ps=1.08 w=0.79 l=0.15
X3 VGND A a_27_47# VNB sky130_fd_pr__nfet_01v8 ad=0.0754 pd=0.81 as=0.135 ps=1.56 w=0.52 l=0.15
.ends

.subckt sky130_fd_sc_hd__a2111oi_1 A1 A2 B1 C1 D1 VGND VNB VPB VPWR Y
X0 a_316_297# C1 a_217_297# VPB sky130_fd_pr__pfet_01v8_hvt ad=0.185 pd=1.37 as=0.172 ps=1.35 w=1 l=0.15
X1 Y D1 VGND VNB sky130_fd_pr__nfet_01v8 ad=0.125 pd=1.03 as=0.481 ps=2.78 w=0.65 l=0.15
X2 VGND C1 Y VNB sky130_fd_pr__nfet_01v8 ad=0.12 pd=1.02 as=0.125 ps=1.03 w=0.65 l=0.15
X3 a_420_297# B1 a_316_297# VPB sky130_fd_pr__pfet_01v8_hvt ad=0.29 pd=1.58 as=0.185 ps=1.37 w=1 l=0.15
X4 VPWR A1 a_420_297# VPB sky130_fd_pr__pfet_01v8_hvt ad=0.138 pd=1.27 as=0.29 ps=1.58 w=1 l=0.15
X5 VGND A2 a_568_47# VNB sky130_fd_pr__nfet_01v8 ad=0.192 pd=1.89 as=0.0845 ps=0.91 w=0.65 l=0.15
X6 Y B1 VGND VNB sky130_fd_pr__nfet_01v8 ad=0.192 pd=1.24 as=0.12 ps=1.02 w=0.65 l=0.15
X7 a_420_297# A2 VPWR VPB sky130_fd_pr__pfet_01v8_hvt ad=0.29 pd=2.58 as=0.138 ps=1.27 w=1 l=0.15
X8 a_217_297# D1 Y VPB sky130_fd_pr__pfet_01v8_hvt ad=0.172 pd=1.35 as=0.755 ps=3.51 w=1 l=0.15
X9 a_568_47# A1 Y VNB sky130_fd_pr__nfet_01v8 ad=0.0845 pd=0.91 as=0.192 ps=1.24 w=0.65 l=0.15
.ends

.subckt sky130_fd_sc_hd__decap_3 VGND VNB VPB VPWR
X0 VPWR VGND VPWR VPB sky130_fd_pr__pfet_01v8_hvt ad=0.226 pd=2.26 as=0 ps=0 w=0.87 l=0.59
X1 VGND VPWR VGND VNB sky130_fd_pr__nfet_01v8 ad=0.143 pd=1.62 as=0 ps=0 w=0.55 l=0.59
.ends

.subckt sky130_fd_sc_hd__buf_2 A VGND VNB VPB VPWR X
X0 VPWR a_27_47# X VPB sky130_fd_pr__pfet_01v8_hvt ad=0.265 pd=2.53 as=0.135 ps=1.27 w=1 l=0.15
X1 X a_27_47# VPWR VPB sky130_fd_pr__pfet_01v8_hvt ad=0.135 pd=1.27 as=0.149 ps=1.33 w=1 l=0.15
X2 VPWR A a_27_47# VPB sky130_fd_pr__pfet_01v8_hvt ad=0.149 pd=1.33 as=0.166 ps=1.8 w=0.64 l=0.15
X3 X a_27_47# VGND VNB sky130_fd_pr__nfet_01v8 ad=0.0878 pd=0.92 as=0.097 ps=0.975 w=0.65 l=0.15
X4 VGND a_27_47# X VNB sky130_fd_pr__nfet_01v8 ad=0.172 pd=1.83 as=0.0878 ps=0.92 w=0.65 l=0.15
X5 VGND A a_27_47# VNB sky130_fd_pr__nfet_01v8 ad=0.097 pd=0.975 as=0.109 ps=1.36 w=0.42 l=0.15
.ends

.subckt sky130_fd_sc_hd__clkbuf_4 A VGND VNB VPB VPWR X
X0 VPWR A a_27_47# VPB sky130_fd_pr__pfet_01v8_hvt ad=0.165 pd=1.33 as=0.265 ps=2.53 w=1 l=0.15
X1 VGND a_27_47# X VNB sky130_fd_pr__nfet_01v8 ad=0.122 pd=1.42 as=0.0588 ps=0.7 w=0.42 l=0.15
X2 VGND a_27_47# X VNB sky130_fd_pr__nfet_01v8 ad=0.0588 pd=0.7 as=0.0588 ps=0.7 w=0.42 l=0.15
X3 X a_27_47# VPWR VPB sky130_fd_pr__pfet_01v8_hvt ad=0.14 pd=1.28 as=0.14 ps=1.28 w=1 l=0.15
X4 X a_27_47# VGND VNB sky130_fd_pr__nfet_01v8 ad=0.0588 pd=0.7 as=0.0588 ps=0.7 w=0.42 l=0.15
X5 VGND A a_27_47# VNB sky130_fd_pr__nfet_01v8 ad=0.0703 pd=0.755 as=0.111 ps=1.37 w=0.42 l=0.15
X6 VPWR a_27_47# X VPB sky130_fd_pr__pfet_01v8_hvt ad=0.3 pd=2.6 as=0.14 ps=1.28 w=1 l=0.15
X7 X a_27_47# VGND VNB sky130_fd_pr__nfet_01v8 ad=0.0588 pd=0.7 as=0.0703 ps=0.755 w=0.42 l=0.15
X8 X a_27_47# VPWR VPB sky130_fd_pr__pfet_01v8_hvt ad=0.14 pd=1.28 as=0.165 ps=1.33 w=1 l=0.15
X9 VPWR a_27_47# X VPB sky130_fd_pr__pfet_01v8_hvt ad=0.14 pd=1.28 as=0.14 ps=1.28 w=1 l=0.15
.ends

.subckt sky130_fd_sc_hd__dfrtp_2 CLK D RESET_B VGND VNB VPB VPWR Q
X0 a_1217_47# a_27_47# a_1108_47# VNB sky130_fd_pr__nfet_01v8 ad=0.0669 pd=0.75 as=0.0711 ps=0.755 w=0.36 l=0.15
X1 a_805_47# a_761_289# a_639_47# VNB sky130_fd_pr__nfet_01v8 ad=0.0441 pd=0.63 as=0.14 ps=1.1 w=0.42 l=0.15
X2 VGND a_1283_21# Q VNB sky130_fd_pr__nfet_01v8 ad=0.169 pd=1.82 as=0.0878 ps=0.92 w=0.65 l=0.15
X3 a_1108_47# a_193_47# a_761_289# VNB sky130_fd_pr__nfet_01v8 ad=0.0711 pd=0.755 as=0.0999 ps=0.985 w=0.36 l=0.15
X4 a_1283_21# a_1108_47# a_1462_47# VNB sky130_fd_pr__nfet_01v8 ad=0.109 pd=1.36 as=0.064 ps=0.725 w=0.42 l=0.15
X5 a_651_413# a_27_47# a_543_47# VPB sky130_fd_pr__pfet_01v8_hvt ad=0.116 pd=0.97 as=0.0724 ps=0.765 w=0.42 l=0.15
X6 VPWR a_1283_21# Q VPB sky130_fd_pr__pfet_01v8_hvt ad=0.26 pd=2.52 as=0.135 ps=1.27 w=1 l=0.15
X7 VGND RESET_B a_805_47# VNB sky130_fd_pr__nfet_01v8 ad=0.135 pd=1.15 as=0.0441 ps=0.63 w=0.42 l=0.15
X8 Q a_1283_21# VPWR VPB sky130_fd_pr__pfet_01v8_hvt ad=0.135 pd=1.27 as=0.301 ps=2.66 w=1 l=0.15
X9 VPWR CLK a_27_47# VPB sky130_fd_pr__pfet_01v8_hvt ad=0.0864 pd=0.91 as=0.166 ps=1.8 w=0.64 l=0.15
X10 a_448_47# D VPWR VPB sky130_fd_pr__pfet_01v8_hvt ad=0.0651 pd=0.73 as=0.109 ps=1.36 w=0.42 l=0.15
X11 a_761_289# a_543_47# VGND VNB sky130_fd_pr__nfet_01v8 ad=0.0999 pd=0.985 as=0.135 ps=1.15 w=0.64 l=0.15
X12 a_193_47# a_27_47# VGND VNB sky130_fd_pr__nfet_01v8 ad=0.109 pd=1.36 as=0.0567 ps=0.69 w=0.42 l=0.15
X13 a_1108_47# a_27_47# a_761_289# VPB sky130_fd_pr__pfet_01v8_hvt ad=0.0588 pd=0.7 as=0.129 ps=1.18 w=0.42 l=0.15
X14 a_543_47# a_27_47# a_448_47# VNB sky130_fd_pr__nfet_01v8 ad=0.0594 pd=0.69 as=0.066 ps=0.745 w=0.36 l=0.15
X15 a_1462_47# RESET_B VGND VNB sky130_fd_pr__nfet_01v8 ad=0.064 pd=0.725 as=0.125 ps=1.01 w=0.42 l=0.15
X16 a_543_47# a_193_47# a_448_47# VPB sky130_fd_pr__pfet_01v8_hvt ad=0.0724 pd=0.765 as=0.0651 ps=0.73 w=0.42 l=0.15
X17 a_448_47# D VGND VNB sky130_fd_pr__nfet_01v8 ad=0.066 pd=0.745 as=0.221 ps=1.89 w=0.42 l=0.15
X18 VPWR a_1283_21# a_1270_413# VPB sky130_fd_pr__pfet_01v8_hvt ad=0.0819 pd=0.81 as=0.0567 ps=0.69 w=0.42 l=0.15
X19 VPWR a_1108_47# a_1283_21# VPB sky130_fd_pr__pfet_01v8_hvt ad=0.113 pd=1.38 as=0.0567 ps=0.69 w=0.42 l=0.15
X20 a_1270_413# a_193_47# a_1108_47# VPB sky130_fd_pr__pfet_01v8_hvt ad=0.0567 pd=0.69 as=0.0588 ps=0.7 w=0.42 l=0.15
X21 a_193_47# a_27_47# VPWR VPB sky130_fd_pr__pfet_01v8_hvt ad=0.166 pd=1.8 as=0.0864 ps=0.91 w=0.64 l=0.15
X22 a_1283_21# RESET_B VPWR VPB sky130_fd_pr__pfet_01v8_hvt ad=0.0567 pd=0.69 as=0.0819 ps=0.81 w=0.42 l=0.15
X23 VPWR a_761_289# a_651_413# VPB sky130_fd_pr__pfet_01v8_hvt ad=0.0703 pd=0.755 as=0.116 ps=0.97 w=0.42 l=0.15
X24 Q a_1283_21# VGND VNB sky130_fd_pr__nfet_01v8 ad=0.0878 pd=0.92 as=0.209 ps=2.02 w=0.65 l=0.15
X25 a_639_47# a_193_47# a_543_47# VNB sky130_fd_pr__nfet_01v8 ad=0.14 pd=1.1 as=0.0594 ps=0.69 w=0.36 l=0.15
X26 VGND a_1283_21# a_1217_47# VNB sky130_fd_pr__nfet_01v8 ad=0.125 pd=1.01 as=0.0669 ps=0.75 w=0.42 l=0.15
X27 a_651_413# RESET_B VPWR VPB sky130_fd_pr__pfet_01v8_hvt ad=0.109 pd=1.36 as=0.0703 ps=0.755 w=0.42 l=0.15
X28 VGND CLK a_27_47# VNB sky130_fd_pr__nfet_01v8 ad=0.0567 pd=0.69 as=0.109 ps=1.36 w=0.42 l=0.15
X29 a_761_289# a_543_47# VPWR VPB sky130_fd_pr__pfet_01v8_hvt ad=0.129 pd=1.18 as=0.218 ps=2.2 w=0.84 l=0.15
.ends

.subckt sky130_fd_sc_hd__and3_1 A B C VGND VNB VPB VPWR X
X0 VPWR A a_27_47# VPB sky130_fd_pr__pfet_01v8_hvt ad=0.0567 pd=0.69 as=0.109 ps=1.36 w=0.42 l=0.15
X1 VPWR C a_27_47# VPB sky130_fd_pr__pfet_01v8_hvt ad=0.142 pd=1.34 as=0.0662 ps=0.735 w=0.42 l=0.15
X2 a_181_47# B a_109_47# VNB sky130_fd_pr__nfet_01v8 ad=0.0441 pd=0.63 as=0.0441 ps=0.63 w=0.42 l=0.15
X3 VGND C a_181_47# VNB sky130_fd_pr__nfet_01v8 ad=0.132 pd=1.14 as=0.0441 ps=0.63 w=0.42 l=0.15
X4 a_27_47# B VPWR VPB sky130_fd_pr__pfet_01v8_hvt ad=0.0662 pd=0.735 as=0.0567 ps=0.69 w=0.42 l=0.15
X5 X a_27_47# VPWR VPB sky130_fd_pr__pfet_01v8_hvt ad=0.26 pd=2.52 as=0.142 ps=1.34 w=1 l=0.15
X6 X a_27_47# VGND VNB sky130_fd_pr__nfet_01v8 ad=0.169 pd=1.82 as=0.132 ps=1.14 w=0.65 l=0.15
X7 a_109_47# A a_27_47# VNB sky130_fd_pr__nfet_01v8 ad=0.0441 pd=0.63 as=0.109 ps=1.36 w=0.42 l=0.15
.ends

.subckt sky130_fd_sc_hd__a2bb2o_1 A1_N A2_N B1 B2 VGND VNB VPB VPWR X
X0 a_226_47# A2_N a_226_297# VPB sky130_fd_pr__pfet_01v8_hvt ad=0.111 pd=1.37 as=0.0441 ps=0.63 w=0.42 l=0.15
X1 a_489_413# B1 VPWR VPB sky130_fd_pr__pfet_01v8_hvt ad=0.109 pd=1.36 as=0.0567 ps=0.69 w=0.42 l=0.15
X2 a_226_297# A1_N VPWR VPB sky130_fd_pr__pfet_01v8_hvt ad=0.0441 pd=0.63 as=0.167 ps=1.43 w=0.42 l=0.15
X3 VPWR B2 a_489_413# VPB sky130_fd_pr__pfet_01v8_hvt ad=0.0567 pd=0.69 as=0.0567 ps=0.69 w=0.42 l=0.15
X4 a_489_413# a_226_47# a_76_199# VPB sky130_fd_pr__pfet_01v8_hvt ad=0.0567 pd=0.69 as=0.109 ps=1.36 w=0.42 l=0.15
X5 a_76_199# a_226_47# VGND VNB sky130_fd_pr__nfet_01v8 ad=0.0567 pd=0.69 as=0.139 ps=1.08 w=0.42 l=0.15
X6 VGND B1 a_556_47# VNB sky130_fd_pr__nfet_01v8 ad=0.109 pd=1.36 as=0.0567 ps=0.69 w=0.42 l=0.15
X7 a_556_47# B2 a_76_199# VNB sky130_fd_pr__nfet_01v8 ad=0.0567 pd=0.69 as=0.0567 ps=0.69 w=0.42 l=0.15
X8 VGND A2_N a_226_47# VNB sky130_fd_pr__nfet_01v8 ad=0.139 pd=1.08 as=0.0567 ps=0.69 w=0.42 l=0.15
X9 a_226_47# A1_N VGND VNB sky130_fd_pr__nfet_01v8 ad=0.0567 pd=0.69 as=0.12 ps=1.09 w=0.42 l=0.15
X10 VPWR a_76_199# X VPB sky130_fd_pr__pfet_01v8_hvt ad=0.167 pd=1.43 as=0.26 ps=2.52 w=1 l=0.15
X11 VGND a_76_199# X VNB sky130_fd_pr__nfet_01v8 ad=0.12 pd=1.09 as=0.169 ps=1.82 w=0.65 l=0.15
.ends

.subckt sky130_fd_sc_hd__nor2_1 A B VGND VNB VPB VPWR Y
X0 VPWR A a_109_297# VPB sky130_fd_pr__pfet_01v8_hvt ad=0.26 pd=2.52 as=0.105 ps=1.21 w=1 l=0.15
X1 VGND A Y VNB sky130_fd_pr__nfet_01v8 ad=0.169 pd=1.82 as=0.0878 ps=0.92 w=0.65 l=0.15
X2 a_109_297# B Y VPB sky130_fd_pr__pfet_01v8_hvt ad=0.105 pd=1.21 as=0.26 ps=2.52 w=1 l=0.15
X3 Y B VGND VNB sky130_fd_pr__nfet_01v8 ad=0.0878 pd=0.92 as=0.169 ps=1.82 w=0.65 l=0.15
.ends

.subckt sky130_fd_sc_hd__inv_2 A VGND VNB VPB VPWR Y
X0 Y A VPWR VPB sky130_fd_pr__pfet_01v8_hvt ad=0.135 pd=1.27 as=0.26 ps=2.52 w=1 l=0.15
X1 VGND A Y VNB sky130_fd_pr__nfet_01v8 ad=0.169 pd=1.82 as=0.0878 ps=0.92 w=0.65 l=0.15
X2 Y A VGND VNB sky130_fd_pr__nfet_01v8 ad=0.0878 pd=0.92 as=0.169 ps=1.82 w=0.65 l=0.15
X3 VPWR A Y VPB sky130_fd_pr__pfet_01v8_hvt ad=0.26 pd=2.52 as=0.135 ps=1.27 w=1 l=0.15
.ends

.subckt sky130_fd_sc_hd__decap_4 VGND VNB VPB VPWR
X0 VPWR VGND VPWR VPB sky130_fd_pr__pfet_01v8_hvt ad=0.226 pd=2.26 as=0 ps=0 w=0.87 l=1.05
X1 VGND VPWR VGND VNB sky130_fd_pr__nfet_01v8 ad=0.143 pd=1.62 as=0 ps=0 w=0.55 l=1.05
.ends

.subckt sky130_fd_sc_hd__nand2_1 A B VGND VNB VPB VPWR Y
X0 VPWR A Y VPB sky130_fd_pr__pfet_01v8_hvt ad=0.26 pd=2.52 as=0.135 ps=1.27 w=1 l=0.15
X1 Y A a_113_47# VNB sky130_fd_pr__nfet_01v8 ad=0.169 pd=1.82 as=0.0878 ps=0.92 w=0.65 l=0.15
X2 a_113_47# B VGND VNB sky130_fd_pr__nfet_01v8 ad=0.0878 pd=0.92 as=0.169 ps=1.82 w=0.65 l=0.15
X3 Y B VPWR VPB sky130_fd_pr__pfet_01v8_hvt ad=0.135 pd=1.27 as=0.26 ps=2.52 w=1 l=0.15
.ends

.subckt sky130_fd_sc_hd__or2b_1 A B_N VGND VNB VPB VPWR X
X0 a_219_297# a_27_53# VGND VNB sky130_fd_pr__nfet_01v8 ad=0.0567 pd=0.69 as=0.157 ps=1.17 w=0.42 l=0.15
X1 VGND B_N a_27_53# VNB sky130_fd_pr__nfet_01v8 ad=0.157 pd=1.17 as=0.109 ps=1.36 w=0.42 l=0.15
X2 VPWR A a_301_297# VPB sky130_fd_pr__pfet_01v8_hvt ad=0.148 pd=1.34 as=0.0441 ps=0.63 w=0.42 l=0.15
X3 X a_219_297# VGND VNB sky130_fd_pr__nfet_01v8 ad=0.176 pd=1.84 as=0.102 ps=0.99 w=0.65 l=0.15
X4 a_301_297# a_27_53# a_219_297# VPB sky130_fd_pr__pfet_01v8_hvt ad=0.0441 pd=0.63 as=0.109 ps=1.36 w=0.42 l=0.15
X5 X a_219_297# VPWR VPB sky130_fd_pr__pfet_01v8_hvt ad=0.27 pd=2.54 as=0.148 ps=1.34 w=1 l=0.15
X6 a_27_53# B_N VPWR VPB sky130_fd_pr__pfet_01v8_hvt ad=0.118 pd=1.4 as=0.109 ps=1.36 w=0.42 l=0.15
X7 VGND A a_219_297# VNB sky130_fd_pr__nfet_01v8 ad=0.102 pd=0.99 as=0.0567 ps=0.69 w=0.42 l=0.15
.ends

.subckt sky130_fd_sc_hd__o31ai_2 A1 A2 A3 B1 VGND VNB VPB VPWR Y
X0 a_281_297# A3 Y VPB sky130_fd_pr__pfet_01v8_hvt ad=0.135 pd=1.27 as=0.28 ps=2.56 w=1 l=0.15
X1 a_281_297# A2 a_27_297# VPB sky130_fd_pr__pfet_01v8_hvt ad=0.135 pd=1.27 as=0.135 ps=1.27 w=1 l=0.15
X2 VGND A2 a_27_47# VNB sky130_fd_pr__nfet_01v8 ad=0.198 pd=1.26 as=0.0878 ps=0.92 w=0.65 l=0.15
X3 a_27_297# A1 VPWR VPB sky130_fd_pr__pfet_01v8_hvt ad=0.135 pd=1.27 as=0.135 ps=1.27 w=1 l=0.15
X4 a_27_47# A1 VGND VNB sky130_fd_pr__nfet_01v8 ad=0.0878 pd=0.92 as=0.0878 ps=0.92 w=0.65 l=0.15
X5 VGND A1 a_27_47# VNB sky130_fd_pr__nfet_01v8 ad=0.0878 pd=0.92 as=0.182 ps=1.86 w=0.65 l=0.15
X6 a_27_47# A3 VGND VNB sky130_fd_pr__nfet_01v8 ad=0.0878 pd=0.92 as=0.114 ps=1 w=0.65 l=0.15
X7 VPWR B1 Y VPB sky130_fd_pr__pfet_01v8_hvt ad=0.195 pd=1.39 as=0.135 ps=1.27 w=1 l=0.15
X8 VPWR A1 a_27_297# VPB sky130_fd_pr__pfet_01v8_hvt ad=0.135 pd=1.27 as=0.28 ps=2.56 w=1 l=0.15
X9 a_27_47# B1 Y VNB sky130_fd_pr__nfet_01v8 ad=0.169 pd=1.82 as=0.127 ps=1.04 w=0.65 l=0.15
X10 a_27_47# A2 VGND VNB sky130_fd_pr__nfet_01v8 ad=0.127 pd=1.04 as=0.198 ps=1.26 w=0.65 l=0.15
X11 VGND A3 a_27_47# VNB sky130_fd_pr__nfet_01v8 ad=0.114 pd=1 as=0.127 ps=1.04 w=0.65 l=0.15
X12 Y B1 a_27_47# VNB sky130_fd_pr__nfet_01v8 ad=0.127 pd=1.04 as=0.0878 ps=0.92 w=0.65 l=0.15
X13 Y A3 a_281_297# VPB sky130_fd_pr__pfet_01v8_hvt ad=0.135 pd=1.27 as=0.135 ps=1.27 w=1 l=0.15
X14 Y B1 VPWR VPB sky130_fd_pr__pfet_01v8_hvt ad=0.26 pd=2.52 as=0.195 ps=1.39 w=1 l=0.15
X15 a_27_297# A2 a_281_297# VPB sky130_fd_pr__pfet_01v8_hvt ad=0.26 pd=2.52 as=0.135 ps=1.27 w=1 l=0.15
.ends

.subckt sky130_fd_sc_hd__a211o_1 A1 A2 B1 C1 VGND VNB VPB VPWR X
X0 VPWR a_80_21# X VPB sky130_fd_pr__pfet_01v8_hvt ad=0.265 pd=2.53 as=0.265 ps=2.53 w=1 l=0.15
X1 a_80_21# C1 a_472_297# VPB sky130_fd_pr__pfet_01v8_hvt ad=0.265 pd=2.53 as=0.155 ps=1.31 w=1 l=0.15
X2 VPWR A2 a_217_297# VPB sky130_fd_pr__pfet_01v8_hvt ad=0.14 pd=1.28 as=0.265 ps=2.53 w=1 l=0.15
X3 VGND B1 a_80_21# VNB sky130_fd_pr__nfet_01v8 ad=0.101 pd=0.96 as=0.091 ps=0.93 w=0.65 l=0.15
X4 VGND a_80_21# X VNB sky130_fd_pr__nfet_01v8 ad=0.26 pd=1.45 as=0.172 ps=1.83 w=0.65 l=0.15
X5 a_300_47# A2 VGND VNB sky130_fd_pr__nfet_01v8 ad=0.091 pd=0.93 as=0.26 ps=1.45 w=0.65 l=0.15
X6 a_217_297# A1 VPWR VPB sky130_fd_pr__pfet_01v8_hvt ad=0.14 pd=1.28 as=0.14 ps=1.28 w=1 l=0.15
X7 a_80_21# A1 a_300_47# VNB sky130_fd_pr__nfet_01v8 ad=0.091 pd=0.93 as=0.091 ps=0.93 w=0.65 l=0.15
X8 a_472_297# B1 a_217_297# VPB sky130_fd_pr__pfet_01v8_hvt ad=0.155 pd=1.31 as=0.14 ps=1.28 w=1 l=0.15
X9 a_80_21# C1 VGND VNB sky130_fd_pr__nfet_01v8 ad=0.172 pd=1.83 as=0.101 ps=0.96 w=0.65 l=0.15
.ends

.subckt sky130_fd_sc_hd__clkbuf_16 A VGND VNB VPB VPWR X
X0 VPWR A a_110_47# VPB sky130_fd_pr__pfet_01v8_hvt ad=0.14 pd=1.28 as=0.14 ps=1.28 w=1 l=0.15
X1 VPWR a_110_47# X VPB sky130_fd_pr__pfet_01v8_hvt ad=0.14 pd=1.28 as=0.14 ps=1.28 w=1 l=0.15
X2 X a_110_47# VPWR VPB sky130_fd_pr__pfet_01v8_hvt ad=0.14 pd=1.28 as=0.14 ps=1.28 w=1 l=0.15
X3 X a_110_47# VPWR VPB sky130_fd_pr__pfet_01v8_hvt ad=0.14 pd=1.28 as=0.14 ps=1.28 w=1 l=0.15
X4 VPWR a_110_47# X VPB sky130_fd_pr__pfet_01v8_hvt ad=0.14 pd=1.28 as=0.14 ps=1.28 w=1 l=0.15
X5 VPWR a_110_47# X VPB sky130_fd_pr__pfet_01v8_hvt ad=0.265 pd=2.53 as=0.14 ps=1.28 w=1 l=0.15
X6 a_110_47# A VPWR VPB sky130_fd_pr__pfet_01v8_hvt ad=0.14 pd=1.28 as=0.265 ps=2.53 w=1 l=0.15
X7 a_110_47# A VGND VNB sky130_fd_pr__nfet_01v8 ad=0.0588 pd=0.7 as=0.0588 ps=0.7 w=0.42 l=0.15
X8 VGND a_110_47# X VNB sky130_fd_pr__nfet_01v8 ad=0.0588 pd=0.7 as=0.0588 ps=0.7 w=0.42 l=0.15
X9 X a_110_47# VGND VNB sky130_fd_pr__nfet_01v8 ad=0.0588 pd=0.7 as=0.0588 ps=0.7 w=0.42 l=0.15
X10 VGND a_110_47# X VNB sky130_fd_pr__nfet_01v8 ad=0.0588 pd=0.7 as=0.0588 ps=0.7 w=0.42 l=0.15
X11 a_110_47# A VPWR VPB sky130_fd_pr__pfet_01v8_hvt ad=0.14 pd=1.28 as=0.14 ps=1.28 w=1 l=0.15
X12 VGND A a_110_47# VNB sky130_fd_pr__nfet_01v8 ad=0.0588 pd=0.7 as=0.0588 ps=0.7 w=0.42 l=0.15
X13 VGND a_110_47# X VNB sky130_fd_pr__nfet_01v8 ad=0.0578 pd=0.695 as=0.0588 ps=0.7 w=0.42 l=0.15
X14 VPWR a_110_47# X VPB sky130_fd_pr__pfet_01v8_hvt ad=0.14 pd=1.28 as=0.14 ps=1.28 w=1 l=0.15
X15 X a_110_47# VPWR VPB sky130_fd_pr__pfet_01v8_hvt ad=0.14 pd=1.28 as=0.14 ps=1.28 w=1 l=0.15
X16 VGND A a_110_47# VNB sky130_fd_pr__nfet_01v8 ad=0.0588 pd=0.7 as=0.0588 ps=0.7 w=0.42 l=0.15
X17 VGND a_110_47# X VNB sky130_fd_pr__nfet_01v8 ad=0.111 pd=1.37 as=0.0588 ps=0.7 w=0.42 l=0.15
X18 VPWR a_110_47# X VPB sky130_fd_pr__pfet_01v8_hvt ad=0.138 pd=1.27 as=0.14 ps=1.28 w=1 l=0.15
X19 VGND a_110_47# X VNB sky130_fd_pr__nfet_01v8 ad=0.0588 pd=0.7 as=0.0588 ps=0.7 w=0.42 l=0.15
X20 X a_110_47# VPWR VPB sky130_fd_pr__pfet_01v8_hvt ad=0.14 pd=1.28 as=0.138 ps=1.27 w=1 l=0.15
X21 a_110_47# A VGND VNB sky130_fd_pr__nfet_01v8 ad=0.0588 pd=0.7 as=0.111 ps=1.37 w=0.42 l=0.15
X22 VPWR A a_110_47# VPB sky130_fd_pr__pfet_01v8_hvt ad=0.14 pd=1.28 as=0.14 ps=1.28 w=1 l=0.15
X23 VPWR a_110_47# X VPB sky130_fd_pr__pfet_01v8_hvt ad=0.14 pd=1.28 as=0.14 ps=1.28 w=1 l=0.15
X24 VPWR a_110_47# X VPB sky130_fd_pr__pfet_01v8_hvt ad=0.14 pd=1.28 as=0.14 ps=1.28 w=1 l=0.15
X25 VGND a_110_47# X VNB sky130_fd_pr__nfet_01v8 ad=0.0588 pd=0.7 as=0.0588 ps=0.7 w=0.42 l=0.15
X26 X a_110_47# VPWR VPB sky130_fd_pr__pfet_01v8_hvt ad=0.14 pd=1.28 as=0.14 ps=1.28 w=1 l=0.15
X27 VGND a_110_47# X VNB sky130_fd_pr__nfet_01v8 ad=0.0588 pd=0.7 as=0.0588 ps=0.7 w=0.42 l=0.15
X28 VGND a_110_47# X VNB sky130_fd_pr__nfet_01v8 ad=0.0588 pd=0.7 as=0.0588 ps=0.7 w=0.42 l=0.15
X29 X a_110_47# VGND VNB sky130_fd_pr__nfet_01v8 ad=0.0588 pd=0.7 as=0.0588 ps=0.7 w=0.42 l=0.15
X30 X a_110_47# VPWR VPB sky130_fd_pr__pfet_01v8_hvt ad=0.14 pd=1.28 as=0.14 ps=1.28 w=1 l=0.15
X31 X a_110_47# VPWR VPB sky130_fd_pr__pfet_01v8_hvt ad=0.14 pd=1.28 as=0.14 ps=1.28 w=1 l=0.15
X32 X a_110_47# VGND VNB sky130_fd_pr__nfet_01v8 ad=0.0588 pd=0.7 as=0.0588 ps=0.7 w=0.42 l=0.15
X33 VPWR a_110_47# X VPB sky130_fd_pr__pfet_01v8_hvt ad=0.14 pd=1.28 as=0.14 ps=1.28 w=1 l=0.15
X34 X a_110_47# VPWR VPB sky130_fd_pr__pfet_01v8_hvt ad=0.14 pd=1.28 as=0.14 ps=1.28 w=1 l=0.15
X35 X a_110_47# VGND VNB sky130_fd_pr__nfet_01v8 ad=0.0588 pd=0.7 as=0.0588 ps=0.7 w=0.42 l=0.15
X36 X a_110_47# VGND VNB sky130_fd_pr__nfet_01v8 ad=0.0588 pd=0.7 as=0.0588 ps=0.7 w=0.42 l=0.15
X37 X a_110_47# VGND VNB sky130_fd_pr__nfet_01v8 ad=0.0588 pd=0.7 as=0.0588 ps=0.7 w=0.42 l=0.15
X38 X a_110_47# VGND VNB sky130_fd_pr__nfet_01v8 ad=0.0588 pd=0.7 as=0.0588 ps=0.7 w=0.42 l=0.15
X39 X a_110_47# VGND VNB sky130_fd_pr__nfet_01v8 ad=0.0588 pd=0.7 as=0.0578 ps=0.695 w=0.42 l=0.15
.ends

.subckt sky130_fd_sc_hd__and2b_1 A_N B VGND VNB VPB VPWR X
X0 VPWR B a_207_413# VPB sky130_fd_pr__pfet_01v8_hvt ad=0.228 pd=1.74 as=0.0609 ps=0.71 w=0.42 l=0.15
X1 X a_207_413# VPWR VPB sky130_fd_pr__pfet_01v8_hvt ad=0.26 pd=2.52 as=0.228 ps=1.74 w=1 l=0.15
X2 a_297_47# a_27_413# a_207_413# VNB sky130_fd_pr__nfet_01v8 ad=0.0504 pd=0.66 as=0.109 ps=1.36 w=0.42 l=0.15
X3 X a_207_413# VGND VNB sky130_fd_pr__nfet_01v8 ad=0.169 pd=1.82 as=0.101 ps=0.99 w=0.65 l=0.15
X4 a_207_413# a_27_413# VPWR VPB sky130_fd_pr__pfet_01v8_hvt ad=0.0609 pd=0.71 as=0.0714 ps=0.76 w=0.42 l=0.15
X5 VPWR A_N a_27_413# VPB sky130_fd_pr__pfet_01v8_hvt ad=0.0714 pd=0.76 as=0.109 ps=1.36 w=0.42 l=0.15
X6 VGND B a_297_47# VNB sky130_fd_pr__nfet_01v8 ad=0.101 pd=0.99 as=0.0504 ps=0.66 w=0.42 l=0.15
X7 a_27_413# A_N VGND VNB sky130_fd_pr__nfet_01v8 ad=0.109 pd=1.36 as=0.109 ps=1.36 w=0.42 l=0.15
.ends

.subckt sky130_fd_sc_hd__dfrtp_4 CLK D RESET_B VGND VNB VPB VPWR Q
X0 a_1217_47# a_27_47# a_1108_47# VNB sky130_fd_pr__nfet_01v8 ad=0.0669 pd=0.75 as=0.0711 ps=0.755 w=0.36 l=0.15
X1 a_805_47# a_761_289# a_639_47# VNB sky130_fd_pr__nfet_01v8 ad=0.0441 pd=0.63 as=0.14 ps=1.1 w=0.42 l=0.15
X2 a_1108_47# a_193_47# a_761_289# VNB sky130_fd_pr__nfet_01v8 ad=0.0711 pd=0.755 as=0.0999 ps=0.985 w=0.36 l=0.15
X3 a_1283_21# a_1108_47# a_1462_47# VNB sky130_fd_pr__nfet_01v8 ad=0.109 pd=1.36 as=0.064 ps=0.725 w=0.42 l=0.15
X4 a_651_413# a_27_47# a_543_47# VPB sky130_fd_pr__pfet_01v8_hvt ad=0.116 pd=0.97 as=0.0724 ps=0.765 w=0.42 l=0.15
X5 VGND RESET_B a_805_47# VNB sky130_fd_pr__nfet_01v8 ad=0.135 pd=1.15 as=0.0441 ps=0.63 w=0.42 l=0.15
X6 VPWR a_1283_21# Q VPB sky130_fd_pr__pfet_01v8_hvt ad=0.305 pd=2.61 as=0.135 ps=1.27 w=1 l=0.15
X7 VPWR CLK a_27_47# VPB sky130_fd_pr__pfet_01v8_hvt ad=0.0864 pd=0.91 as=0.166 ps=1.8 w=0.64 l=0.15
X8 a_448_47# D VPWR VPB sky130_fd_pr__pfet_01v8_hvt ad=0.0651 pd=0.73 as=0.109 ps=1.36 w=0.42 l=0.15
X9 Q a_1283_21# VPWR VPB sky130_fd_pr__pfet_01v8_hvt ad=0.135 pd=1.27 as=0.135 ps=1.27 w=1 l=0.15
X10 VPWR a_1283_21# Q VPB sky130_fd_pr__pfet_01v8_hvt ad=0.135 pd=1.27 as=0.135 ps=1.27 w=1 l=0.15
X11 a_761_289# a_543_47# VGND VNB sky130_fd_pr__nfet_01v8 ad=0.0999 pd=0.985 as=0.135 ps=1.15 w=0.64 l=0.15
X12 Q a_1283_21# VGND VNB sky130_fd_pr__nfet_01v8 ad=0.0878 pd=0.92 as=0.169 ps=1.82 w=0.65 l=0.15
X13 a_193_47# a_27_47# VGND VNB sky130_fd_pr__nfet_01v8 ad=0.109 pd=1.36 as=0.0567 ps=0.69 w=0.42 l=0.15
X14 a_1108_47# a_27_47# a_761_289# VPB sky130_fd_pr__pfet_01v8_hvt ad=0.0588 pd=0.7 as=0.129 ps=1.18 w=0.42 l=0.15
X15 a_543_47# a_27_47# a_448_47# VNB sky130_fd_pr__nfet_01v8 ad=0.0594 pd=0.69 as=0.066 ps=0.745 w=0.36 l=0.15
X16 a_1462_47# RESET_B VGND VNB sky130_fd_pr__nfet_01v8 ad=0.064 pd=0.725 as=0.125 ps=1.01 w=0.42 l=0.15
X17 a_543_47# a_193_47# a_448_47# VPB sky130_fd_pr__pfet_01v8_hvt ad=0.0724 pd=0.765 as=0.0651 ps=0.73 w=0.42 l=0.15
X18 a_448_47# D VGND VNB sky130_fd_pr__nfet_01v8 ad=0.066 pd=0.745 as=0.221 ps=1.89 w=0.42 l=0.15
X19 VPWR a_1283_21# a_1270_413# VPB sky130_fd_pr__pfet_01v8_hvt ad=0.0819 pd=0.81 as=0.0567 ps=0.69 w=0.42 l=0.15
X20 VPWR a_1108_47# a_1283_21# VPB sky130_fd_pr__pfet_01v8_hvt ad=0.113 pd=1.38 as=0.0567 ps=0.69 w=0.42 l=0.15
X21 Q a_1283_21# VPWR VPB sky130_fd_pr__pfet_01v8_hvt ad=0.135 pd=1.27 as=0.26 ps=2.52 w=1 l=0.15
X22 a_1270_413# a_193_47# a_1108_47# VPB sky130_fd_pr__pfet_01v8_hvt ad=0.0567 pd=0.69 as=0.0588 ps=0.7 w=0.42 l=0.15
X23 a_193_47# a_27_47# VPWR VPB sky130_fd_pr__pfet_01v8_hvt ad=0.166 pd=1.8 as=0.0864 ps=0.91 w=0.64 l=0.15
X24 a_1283_21# RESET_B VPWR VPB sky130_fd_pr__pfet_01v8_hvt ad=0.0567 pd=0.69 as=0.0819 ps=0.81 w=0.42 l=0.15
X25 VGND a_1283_21# Q VNB sky130_fd_pr__nfet_01v8 ad=0.0878 pd=0.92 as=0.0878 ps=0.92 w=0.65 l=0.15
X26 VGND a_1283_21# Q VNB sky130_fd_pr__nfet_01v8 ad=0.182 pd=1.86 as=0.0878 ps=0.92 w=0.65 l=0.15
X27 VPWR a_761_289# a_651_413# VPB sky130_fd_pr__pfet_01v8_hvt ad=0.0703 pd=0.755 as=0.116 ps=0.97 w=0.42 l=0.15
X28 a_639_47# a_193_47# a_543_47# VNB sky130_fd_pr__nfet_01v8 ad=0.14 pd=1.1 as=0.0594 ps=0.69 w=0.36 l=0.15
X29 VGND a_1283_21# a_1217_47# VNB sky130_fd_pr__nfet_01v8 ad=0.125 pd=1.01 as=0.0669 ps=0.75 w=0.42 l=0.15
X30 a_651_413# RESET_B VPWR VPB sky130_fd_pr__pfet_01v8_hvt ad=0.109 pd=1.36 as=0.0703 ps=0.755 w=0.42 l=0.15
X31 VGND CLK a_27_47# VNB sky130_fd_pr__nfet_01v8 ad=0.0567 pd=0.69 as=0.109 ps=1.36 w=0.42 l=0.15
X32 a_761_289# a_543_47# VPWR VPB sky130_fd_pr__pfet_01v8_hvt ad=0.129 pd=1.18 as=0.218 ps=2.2 w=0.84 l=0.15
X33 Q a_1283_21# VGND VNB sky130_fd_pr__nfet_01v8 ad=0.0878 pd=0.92 as=0.0878 ps=0.92 w=0.65 l=0.15
.ends

.subckt sky130_fd_sc_hd__dlymetal6s2s_1 A VGND VNB VPB VPWR X
X0 a_558_47# a_381_47# VPWR VPB sky130_fd_pr__pfet_01v8_hvt ad=0.26 pd=2.52 as=0.141 ps=1.33 w=1 l=0.15
X1 VGND X a_381_47# VNB sky130_fd_pr__nfet_01v8 ad=0.097 pd=0.975 as=0.109 ps=1.36 w=0.42 l=0.15
X2 a_841_47# a_664_47# VPWR VPB sky130_fd_pr__pfet_01v8_hvt ad=0.26 pd=2.52 as=0.141 ps=1.33 w=1 l=0.15
X3 VPWR A a_62_47# VPB sky130_fd_pr__pfet_01v8_hvt ad=0.141 pd=1.33 as=0.109 ps=1.36 w=0.42 l=0.15
X4 VGND A a_62_47# VNB sky130_fd_pr__nfet_01v8 ad=0.097 pd=0.975 as=0.109 ps=1.36 w=0.42 l=0.15
X5 a_558_47# a_381_47# VGND VNB sky130_fd_pr__nfet_01v8 ad=0.169 pd=1.82 as=0.097 ps=0.975 w=0.65 l=0.15
X6 X a_62_47# VPWR VPB sky130_fd_pr__pfet_01v8_hvt ad=0.26 pd=2.52 as=0.141 ps=1.33 w=1 l=0.15
X7 VPWR X a_381_47# VPB sky130_fd_pr__pfet_01v8_hvt ad=0.141 pd=1.33 as=0.109 ps=1.36 w=0.42 l=0.15
X8 a_841_47# a_664_47# VGND VNB sky130_fd_pr__nfet_01v8 ad=0.169 pd=1.82 as=0.097 ps=0.975 w=0.65 l=0.15
X9 X a_62_47# VGND VNB sky130_fd_pr__nfet_01v8 ad=0.169 pd=1.82 as=0.097 ps=0.975 w=0.65 l=0.15
X10 VPWR a_558_47# a_664_47# VPB sky130_fd_pr__pfet_01v8_hvt ad=0.141 pd=1.33 as=0.109 ps=1.36 w=0.42 l=0.15
X11 VGND a_558_47# a_664_47# VNB sky130_fd_pr__nfet_01v8 ad=0.097 pd=0.975 as=0.109 ps=1.36 w=0.42 l=0.15
.ends

.subckt sky130_fd_sc_hd__clkbuf_2 A VGND VNB VPB VPWR X
X0 VPWR A a_27_47# VPB sky130_fd_pr__pfet_01v8_hvt ad=0.162 pd=1.33 as=0.265 ps=2.53 w=1 l=0.15
X1 VPWR a_27_47# X VPB sky130_fd_pr__pfet_01v8_hvt ad=0.26 pd=2.52 as=0.135 ps=1.27 w=1 l=0.15
X2 VGND A a_27_47# VNB sky130_fd_pr__nfet_01v8 ad=0.0683 pd=0.745 as=0.111 ps=1.37 w=0.42 l=0.15
X3 X a_27_47# VPWR VPB sky130_fd_pr__pfet_01v8_hvt ad=0.135 pd=1.27 as=0.162 ps=1.33 w=1 l=0.15
X4 X a_27_47# VGND VNB sky130_fd_pr__nfet_01v8 ad=0.0567 pd=0.69 as=0.0683 ps=0.745 w=0.42 l=0.15
X5 VGND a_27_47# X VNB sky130_fd_pr__nfet_01v8 ad=0.109 pd=1.36 as=0.0567 ps=0.69 w=0.42 l=0.15
.ends

.subckt sky130_fd_sc_hd__o2111ai_1 A1 A2 B1 C1 D1 VGND VNB VPB VPWR Y
X0 VPWR C1 Y VPB sky130_fd_pr__pfet_01v8_hvt ad=0.195 pd=1.39 as=0.14 ps=1.28 w=1 l=0.15
X1 a_235_47# C1 a_163_47# VNB sky130_fd_pr__nfet_01v8 ad=0.127 pd=1.04 as=0.0683 ps=0.86 w=0.65 l=0.15
X2 a_343_47# B1 a_235_47# VNB sky130_fd_pr__nfet_01v8 ad=0.132 pd=1.05 as=0.127 ps=1.04 w=0.65 l=0.15
X3 Y B1 VPWR VPB sky130_fd_pr__pfet_01v8_hvt ad=0.203 pd=1.4 as=0.195 ps=1.39 w=1 l=0.15