*SPEF "ieee 1481-1999"
*DESIGN "flex_counter"
*DATE "11:11:11 Fri 11 11, 1111"
*VENDOR "OpenRCX"
*PROGRAM "Parallel Extraction"
*VERSION "1.0"
*DESIGN_FLOW "NAME_SCOPE LOCAL" "PIN_CAP NONE"
*DIVIDER /
*DELIMITER :
*BUS_DELIMITER []
*T_UNIT 1 NS
*C_UNIT 1 PF
*R_UNIT 1 OHM
*L_UNIT 1 HENRY

*NAME_MAP
*3 clear
*4 clk
*5 count[0]
*6 count[1]
*7 count[2]
*8 count[3]
*9 enable
*10 flag
*11 nRST
*12 rollover[0]
*13 rollover[1]
*14 rollover[2]
*15 rollover[3]
*16 _00_
*17 _01_
*18 _02_
*19 _03_
*20 _04_
*21 _05_
*22 _06_
*23 _07_
*24 _08_
*25 _09_
*26 _10_
*27 _11_
*28 _12_
*29 _13_
*30 _14_
*31 _15_
*32 _16_
*33 _17_
*34 _18_
*35 _19_
*36 _20_
*37 _21_
*38 _22_
*39 _23_
*40 _24_
*41 _25_
*42 _26_
*43 _27_
*44 _28_
*45 _29_
*46 _30_
*47 _31_
*48 _32_
*49 _33_
*50 _34_
*51 _35_
*52 _36_
*53 clknet_0_clk
*54 clknet_1_0__leaf_clk
*55 clknet_1_1__leaf_clk
*56 net1
*57 net10
*58 net11
*59 net12
*60 net13
*61 net2
*62 net3
*63 net4
*64 net5
*65 net6
*66 net7
*67 net8
*68 net9
*69 next_count\[0\]
*70 next_count\[1\]
*71 next_count\[2\]
*72 next_count\[3\]
*73 next_flag
*74 FILLER_0_0_11
*75 FILLER_0_0_19
*76 FILLER_0_0_27
*77 FILLER_0_0_29
*78 FILLER_0_0_3
*79 FILLER_0_0_37
*80 FILLER_0_0_45
*81 FILLER_0_0_53
*82 FILLER_0_0_57
*83 FILLER_0_0_64
*84 FILLER_0_10_15
*85 FILLER_0_10_23
*86 FILLER_0_10_27
*87 FILLER_0_10_29
*88 FILLER_0_10_37
*89 FILLER_0_10_48
*90 FILLER_0_10_57
*91 FILLER_0_10_7
*92 FILLER_0_1_18
*93 FILLER_0_1_26
*94 FILLER_0_1_35
*95 FILLER_0_1_46
*96 FILLER_0_1_6
*97 FILLER_0_1_63
*98 FILLER_0_2_54
*99 FILLER_0_2_6
*100 FILLER_0_3_25
*101 FILLER_0_3_54
*102 FILLER_0_3_62
*103 FILLER_0_4_18
*104 FILLER_0_4_27
*105 FILLER_0_4_29
*106 FILLER_0_4_44
*107 FILLER_0_4_9
*108 FILLER_0_5_11
*109 FILLER_0_5_19
*110 FILLER_0_5_27
*111 FILLER_0_5_3
*112 FILLER_0_5_62
*113 FILLER_0_7_53
*114 FILLER_0_7_57
*115 FILLER_0_8_23
*116 FILLER_0_8_27
*117 FILLER_0_8_41
*118 FILLER_0_9_23
*119 FILLER_0_9_45
*120 FILLER_0_9_53
*121 FILLER_0_9_57
*122 PHY_EDGE_ROW_0_Left_11
*123 PHY_EDGE_ROW_0_Right_0
*124 PHY_EDGE_ROW_10_Left_21
*125 PHY_EDGE_ROW_10_Right_10
*126 PHY_EDGE_ROW_1_Left_12
*127 PHY_EDGE_ROW_1_Right_1
*128 PHY_EDGE_ROW_2_Left_13
*129 PHY_EDGE_ROW_2_Right_2
*130 PHY_EDGE_ROW_3_Left_14
*131 PHY_EDGE_ROW_3_Right_3
*132 PHY_EDGE_ROW_4_Left_15
*133 PHY_EDGE_ROW_4_Right_4
*134 PHY_EDGE_ROW_5_Left_16
*135 PHY_EDGE_ROW_5_Right_5
*136 PHY_EDGE_ROW_6_Left_17
*137 PHY_EDGE_ROW_6_Right_6
*138 PHY_EDGE_ROW_7_Left_18
*139 PHY_EDGE_ROW_7_Right_7
*140 PHY_EDGE_ROW_8_Left_19
*141 PHY_EDGE_ROW_8_Right_8
*142 PHY_EDGE_ROW_9_Left_20
*143 PHY_EDGE_ROW_9_Right_9
*144 TAP_TAPCELL_ROW_0_22
*145 TAP_TAPCELL_ROW_0_23
*146 TAP_TAPCELL_ROW_10_33
*147 TAP_TAPCELL_ROW_10_34
*148 TAP_TAPCELL_ROW_1_24
*149 TAP_TAPCELL_ROW_2_25
*150 TAP_TAPCELL_ROW_3_26
*151 TAP_TAPCELL_ROW_4_27
*152 TAP_TAPCELL_ROW_5_28
*153 TAP_TAPCELL_ROW_6_29
*154 TAP_TAPCELL_ROW_7_30
*155 TAP_TAPCELL_ROW_8_31
*156 TAP_TAPCELL_ROW_9_32
*157 _37_
*158 _38_
*159 _39_
*160 _40_
*161 _41_
*162 _42_
*163 _43_
*164 _44_
*165 _45_
*166 _46_
*167 _47_
*168 _48_
*169 _49_
*170 _50_
*171 _51_
*172 _52_
*173 _53_
*174 _54_
*175 _55_
*176 _56_
*177 _57_
*178 _58_
*179 _59_
*180 _60_
*181 _61_
*182 _62_
*183 _63_
*184 _64_
*185 _65_
*186 _66_
*187 _67_
*188 _68_
*189 _69_
*190 _70_
*191 _71_
*192 _72_
*193 _73_
*194 _74_
*195 _75_
*196 _76_
*197 _77_
*198 _78_
*199 _79_
*200 _80_
*201 _81_
*202 _82_
*203 _83_
*204 clkbuf_0_clk
*205 clkbuf_1_0__f_clk
*206 clkbuf_1_1__f_clk
*207 input1
*208 input2
*209 input3
*210 input4
*211 input5
*212 input6
*213 input7
*214 max_cap13
*215 output10
*216 output11
*217 output12
*218 output8
*219 output9

*PORTS
clear I
clk I
count[0] O
count[1] O
count[2] O
count[3] O
enable I
flag O
nRST I
rollover[0] I
rollover[1] I
rollover[2] I
rollover[3] I

*D_NET *3 0.0010472
*CONN
*P clear I
*I *207:A I *D sky130_fd_sc_hd__buf_1
*CAP
1 clear 0.0005236
2 *207:A 0.0005236
*RES
1 clear *207:A 49.0821 
*END

*D_NET *4 0.00231346
*CONN
*P clk I
*I *204:A I *D sky130_fd_sc_hd__clkbuf_16
*CAP
1 clk 0.00103089
2 *204:A 0
3 *4:15 0.00103089
4 *4:15 *202:CLK 1.32289e-05
5 *4:15 *202:D 0.000141954
6 *4:15 *11:11 7.90538e-05
7 *4:15 *58:10 1.74507e-05
*RES
1 clk *4:15 35.5931 
2 *4:15 *204:A 23 
*END

*D_NET *5 0.00158114
*CONN
*P count[0] O
*I *218:X O *D sky130_fd_sc_hd__buf_2
*CAP
1 count[0] 0.000209354
2 *218:X 0.000390443
3 *5:10 0.000599797
4 count[0] *210:A 6.00243e-05
5 *5:10 *164:B_N 0.000193729
6 *5:10 *193:A1 0.000127793
*RES
1 *218:X *5:10 44.1625 
2 *5:10 count[0] 8.84373 
*END

*D_NET *6 0.000543024
*CONN
*P count[1] O
*I *219:X O *D sky130_fd_sc_hd__clkbuf_4
*CAP
1 count[1] 0.000236566
2 *219:X 0.000236566
3 count[1] count[2] 3.49463e-05
4 count[1] *200:CLK 0
5 count[1] *11:11 3.49463e-05
*RES
1 *219:X count[1] 49.5289 
*END

*D_NET *7 0.00104852
*CONN
*P count[2] O
*I *215:X O *D sky130_fd_sc_hd__clkbuf_4
*CAP
1 count[2] 8.75992e-05
2 *215:X 0.000360884
3 *7:10 0.000448483
4 count[2] count[3] 3.25681e-05
5 count[2] *11:11 0
6 *7:10 *195:B 0
7 *7:10 *8:10 8.40366e-05
8 count[1] count[2] 3.49463e-05
*RES
1 *215:X *7:10 44.3696 
2 *7:10 count[2] 8.4144 
*END

*D_NET *8 0.000945872
*CONN
*P count[3] O
*I *216:X O *D sky130_fd_sc_hd__clkbuf_4
*CAP
1 count[3] 6.04807e-05
2 *216:X 0.000337232
3 *8:10 0.000397712
4 count[3] *212:A 3.38429e-05
5 count[2] count[3] 3.25681e-05
6 *7:10 *8:10 8.40366e-05
*RES
1 *216:X *8:10 42.9818 
2 *8:10 count[3] 8.32853 
*END

*D_NET *9 0.00139927
*CONN
*P enable I
*I *208:A I *D sky130_fd_sc_hd__dlymetal6s2s_1
*CAP
1 enable 0.000447979
2 *208:A 0
3 *9:13 0.000447979
4 *9:13 *192:A 1.5769e-05
5 *9:13 *192:B 7.44257e-05
6 *9:13 *210:A 5.72114e-05
7 *9:13 *36:6 0.000102245
8 *9:13 *36:19 2.6146e-05
9 *9:13 *47:10 0.00010018
10 *9:13 *59:12 0.00012733
*RES
1 enable *9:13 29.9204 
2 *9:13 *208:A 23 
*END

*D_NET *10 0.000838884
*CONN
*P flag O
*I *217:X O *D sky130_fd_sc_hd__clkbuf_4
*CAP
1 flag 0.000356001
2 *217:X 0.000356001
3 flag *59:12 0.000126882
*RES
1 *217:X flag 48.6592 
*END

*D_NET *11 0.00111819
*CONN
*P nRST I
*I *209:A I *D sky130_fd_sc_hd__clkbuf_2
*CAP
1 nRST 0.000502097
2 *209:A 0
3 *11:11 0.000502097
4 *11:11 *202:CLK 0
5 *11:11 *202:D 0
6 *11:11 *202:RESET_B 0
7 count[1] *11:11 3.49463e-05
8 count[2] *11:11 0
9 *4:15 *11:11 7.90538e-05
*RES
1 nRST *11:11 28.7427 
2 *11:11 *209:A 23 
*END

*D_NET *12 0.000817858
*CONN
*P rollover[0] I
*I *210:A I *D sky130_fd_sc_hd__dlymetal6s2s_1
*CAP
1 rollover[0] 0.000290749
2 *210:A 0.000290749
3 *210:A *192:B 2.44039e-05
4 *210:A *193:A1 9.47208e-05
5 count[0] *210:A 6.00243e-05
6 *9:13 *210:A 5.72114e-05
*RES
1 rollover[0] *210:A 49.8961 
*END

*D_NET *13 0.000602867
*CONN
*P rollover[1] I
*I *211:A I *D sky130_fd_sc_hd__buf_1
*CAP
1 rollover[1] 0.00028396
2 *211:A 0
3 *13:13 0.00028396
4 *13:13 *213:A 3.49463e-05
*RES
1 rollover[1] *13:13 27.2332 
2 *13:13 *211:A 23 
*END

*D_NET *14 0.000460042
*CONN
*P rollover[2] I
*I *212:A I *D sky130_fd_sc_hd__buf_1
*CAP
1 rollover[2] 0.000196178
2 *212:A 0.000196178
3 *212:A *213:A 3.38429e-05
4 count[3] *212:A 3.38429e-05
*RES
1 rollover[2] *212:A 47.0789 
*END

*D_NET *15 0.000502335
*CONN
*P rollover[3] I
*I *213:A I *D sky130_fd_sc_hd__buf_1
*CAP
1 rollover[3] 0.000216773
2 *213:A 0.000216773
3 *212:A *213:A 3.38429e-05
4 *13:13 *213:A 3.49463e-05
*RES
1 rollover[3] *213:A 49.1767 
*END

*D_NET *16 0.0045516
*CONN
*I *169:A I *D sky130_fd_sc_hd__or3b_1
*I *191:B I *D sky130_fd_sc_hd__or2_1
*I *157:X O *D sky130_fd_sc_hd__or3_1
*CAP
1 *169:A 0
2 *191:B 0
3 *157:X 0.000144288
4 *16:39 0.000507258
5 *16:20 0.000284914
6 *16:14 0.00123914
7 *16:8 0.000591254
8 *16:8 *157:B 4.88572e-05
9 *16:8 *161:B 7.44586e-06
10 *16:8 *18:8 3.34818e-06
11 *16:8 *19:8 0.0001133
12 *16:8 *20:10 6.1062e-05
13 *16:8 *20:24 6.07908e-05
14 *16:14 *160:A_N 0.000277792
15 *16:14 *160:B 3.86731e-05
16 *16:14 *172:B1 2.02872e-05
17 *16:14 *180:A3 0.000138859
18 *16:14 *50:10 4.08164e-05
19 *16:20 *20:32 6.12484e-05
20 *16:20 *38:12 0.000176017
21 *16:20 *50:10 3.6608e-05
22 *16:20 *68:31 0
23 *16:39 *168:A2 1.22822e-05
24 *16:39 *180:A3 0.000125498
25 *16:39 *180:B1 1.66123e-05
26 *16:39 *27:8 5.76359e-05
27 *16:39 *27:18 6.17801e-05
28 *16:39 *28:10 7.61229e-06
29 *16:39 *33:12 0.000182222
30 *16:39 *60:18 9.89059e-05
31 *16:39 *63:8 0.000100486
32 *16:39 *63:29 3.6608e-05
*RES
1 *157:X *16:8 40.9621 
2 *16:8 *16:14 22.7886 
3 *16:14 *16:20 36.4836 
4 *16:20 *191:B 23 
5 *16:14 *16:39 39.9843 
6 *16:39 *169:A 23 
*END

*D_NET *17 0.000890024
*CONN
*I *168:A1 I *D sky130_fd_sc_hd__a2111oi_1
*I *158:Y O *D sky130_fd_sc_hd__inv_2
*CAP
1 *168:A1 0
2 *158:Y 0.000273333
3 *17:10 0.000273333
4 *17:10 *24:25 6.57726e-05
5 *17:10 *27:18 3.50862e-06
6 *17:10 *48:16 0
7 *17:10 *67:65 0.000274078
*RES
1 *158:Y *17:10 42.9093 
2 *17:10 *168:A1 38 
*END

*D_NET *18 0.00223622
*CONN
*I *170:B I *D sky130_fd_sc_hd__nand2_1
*I *162:A2 I *D sky130_fd_sc_hd__a211o_1
*I *167:A1_N I *D sky130_fd_sc_hd__a2bb2o_1
*I *159:Y O *D sky130_fd_sc_hd__inv_2
*CAP
1 *170:B 8.3151e-05
2 *162:A2 0
3 *167:A1_N 0
4 *159:Y 8.22299e-05
5 *18:33 0.000167557
6 *18:18 0.000470688
7 *18:8 0.000637324
8 *170:B *162:A1 9.41704e-05
9 *170:B *170:A 9.79925e-05
10 *170:B *21:6 9.79925e-05
11 *18:8 *163:B_N 3.23593e-05
12 *18:8 *19:8 5.20707e-05
13 *18:18 *26:14 0.000323461
14 *18:18 *64:12 1.04213e-05
15 *18:33 *162:A1 3.3115e-05
16 *18:33 *19:20 2.65605e-05
17 *18:33 *19:39 1.3523e-05
18 *18:33 *20:24 1.02535e-05
19 *16:8 *18:8 3.34818e-06
*RES
1 *159:Y *18:8 39.7296 
2 *18:8 *18:18 32.2357 
3 *18:18 *167:A1_N 23 
4 *18:8 *18:33 17.0921 
5 *18:33 *162:A2 23 
6 *18:33 *170:B 25.0507 
*END

*D_NET *19 0.00172487
*CONN
*I *171:B1 I *D sky130_fd_sc_hd__a21o_1
*I *162:B1 I *D sky130_fd_sc_hd__a211o_1
*I *160:X O *D sky130_fd_sc_hd__and2b_1
*CAP
1 *171:B1 0
2 *162:B1 0
3 *160:X 5.57474e-05
4 *19:39 0.000409669
5 *19:20 0.000473163
6 *19:8 0.000119241
7 *19:20 *162:A1 5.30342e-06
8 *19:20 *20:14 1.24376e-05
9 *19:20 *20:24 1.74944e-05
10 *19:39 *163:B_N 0.000130645
11 *19:39 *20:10 0
12 *19:39 *20:24 2.36123e-05
13 *19:39 *22:8 0.000272099
14 *16:8 *19:8 0.0001133
15 *18:8 *19:8 5.20707e-05
16 *18:33 *19:20 2.65605e-05
17 *18:33 *19:39 1.3523e-05
*RES
1 *160:X *19:8 39.5536 
2 *19:8 *19:20 16.9161 
3 *19:20 *162:B1 23 
4 *19:20 *19:39 37.4779 
5 *19:39 *171:B1 23 
*END

*D_NET *20 0.00285486
*CONN
*I *162:C1 I *D sky130_fd_sc_hd__a211o_1
*I *174:A I *D sky130_fd_sc_hd__or3b_1
*I *180:A1 I *D sky130_fd_sc_hd__o31ai_2
*I *161:X O *D sky130_fd_sc_hd__and2b_1
*CAP
1 *162:C1 0
2 *174:A 0
3 *180:A1 0
4 *161:X 0.000174762
5 *20:32 0.000213736
6 *20:24 0.000760416
7 *20:14 0.000621698
8 *20:10 0.000249779
9 *20:10 *161:B 6.39053e-05
10 *20:10 *163:A 9.86955e-06
11 *20:24 *162:A1 0.000138979
12 *20:24 *170:A 0.000171296
13 *20:24 *21:6 4.21471e-05
14 *20:32 *172:B1 1.30317e-05
15 *20:32 *174:B 3.88725e-05
16 *20:32 *180:A3 2.8133e-05
17 *20:32 *21:6 5.58003e-05
18 *20:32 *21:18 8.0612e-06
19 *20:32 *26:18 1.17206e-05
20 *20:32 *32:10 5.75756e-06
21 *16:8 *20:10 6.1062e-05
22 *16:8 *20:24 6.07908e-05
23 *16:20 *20:32 6.12484e-05
24 *18:33 *20:24 1.02535e-05
25 *19:20 *20:14 1.24376e-05
26 *19:20 *20:24 1.74944e-05
27 *19:39 *20:10 0
28 *19:39 *20:24 2.36123e-05
*RES
1 *161:X *20:10 41.0036 
2 *20:10 *20:14 16.0979 
3 *20:14 *20:24 38.5136 
4 *20:24 *20:32 33.9357 
5 *20:32 *180:A1 23 
6 *20:24 *174:A 23 
7 *20:14 *162:C1 23 
*END

*D_NET *21 0.00189253
*CONN
*I *168:B1 I *D sky130_fd_sc_hd__a2111oi_1
*I *173:A1 I *D sky130_fd_sc_hd__o31a_1
*I *162:X O *D sky130_fd_sc_hd__a211o_1
*CAP
1 *168:B1 0.000101443
2 *173:A1 0
3 *162:X 0.000188033
4 *21:18 0.000177315
5 *21:6 0.000466791
6 *168:B1 *26:26 2.19403e-05
7 *168:B1 *27:8 9.3495e-05
8 *168:B1 *33:12 0.000229392
9 *21:6 *170:A 4.839e-05
10 *21:6 *26:26 0.000212998
11 *21:18 *165:A 4.79152e-05
12 *21:18 *173:A2 4.88591e-05
13 *21:18 *26:32 5.19592e-05
14 *21:18 *32:10 0
15 *170:B *21:6 9.79925e-05
16 *20:24 *21:6 4.21471e-05
17 *20:32 *21:6 5.58003e-05
18 *20:32 *21:18 8.0612e-06
*RES
1 *162:X *21:6 27.9093 
2 *21:6 *21:18 33.8736 
3 *21:18 *173:A1 23 
4 *21:6 *168:B1 26.0036 
*END

*D_NET *22 0.0017073
*CONN
*I *165:A I *D sky130_fd_sc_hd__nand2_1
*I *171:A1 I *D sky130_fd_sc_hd__a21o_1
*I *163:X O *D sky130_fd_sc_hd__or2b_1
*CAP
1 *165:A 0.000130218
2 *171:A1 0
3 *163:X 0.000154831
4 *22:8 0.000285049
5 *165:A *165:B 1.4345e-05
6 *165:A *171:A2 0.000435144
7 *165:A *173:A2 4.45701e-05
8 *165:A *32:10 0.000117836
9 *165:A *67:65 9.28753e-05
10 *22:8 *163:B_N 5.56279e-05
11 *22:8 *171:A2 3.91386e-05
12 *22:8 *32:10 1.76557e-05
13 *19:39 *22:8 0.000272099
14 *21:18 *165:A 4.79152e-05
*RES
1 *163:X *22:8 27.4536 
2 *22:8 *171:A1 23 
3 *22:8 *165:A 29.8979 
*END

*D_NET *23 0.00192675
*CONN
*I *165:B I *D sky130_fd_sc_hd__nand2_1
*I *171:A2 I *D sky130_fd_sc_hd__a21o_1
*I *164:X O *D sky130_fd_sc_hd__or2b_1
*CAP
1 *165:B 1.5048e-05
2 *171:A2 0.000263708
3 *164:X 0.00021566
4 *23:6 0.000494416
5 *165:B *67:65 0
6 *171:A2 *67:65 2.9938e-05
7 *23:6 *164:B_N 0.000217372
8 *23:6 *67:65 0.000146971
9 *23:6 *67:72 5.50106e-05
10 *165:A *165:B 1.4345e-05
11 *165:A *171:A2 0.000435144
12 *22:8 *171:A2 3.91386e-05
*RES
1 *164:X *23:6 28.8621 
2 *23:6 *171:A2 29.7321 
3 *23:6 *165:B 23.4971 
*END

*D_NET *24 0.000856573
*CONN
*I *168:C1 I *D sky130_fd_sc_hd__a2111oi_1
*I *173:A2 I *D sky130_fd_sc_hd__o31a_1
*I *165:Y O *D sky130_fd_sc_hd__nand2_1
*CAP
1 *168:C1 0
2 *173:A2 0.000129123
3 *165:Y 3.75814e-05
4 *24:25 6.56842e-05
5 *24:6 0.000232389
6 *173:A2 *67:65 5.07093e-05
7 *24:6 *67:65 4.34745e-05
8 *24:25 *67:52 0.000138411
9 *165:A *173:A2 4.45701e-05
10 *17:10 *24:25 6.57726e-05
11 *21:18 *173:A2 4.88591e-05
*RES
1 *165:Y *24:6 23.6214 
2 *24:6 *173:A2 25.7136 
3 *24:6 *24:25 31.9057 
4 *24:25 *168:C1 23 
*END

*D_NET *25 0.000845346
*CONN
*I *167:B2 I *D sky130_fd_sc_hd__a2bb2o_1
*I *166:Y O *D sky130_fd_sc_hd__inv_2
*CAP
1 *167:B2 0.000121669
2 *166:Y 0.000142697
3 *25:10 0.000264365
4 *167:B2 *157:A 5.47983e-06
5 *167:B2 *167:A2_N 9.65021e-05
6 *167:B2 *66:12 2.50118e-05
7 *25:10 *160:B 4.2812e-06
8 *25:10 *64:12 8.78864e-05
9 *25:10 *65:8 9.74542e-05
*RES
1 *166:Y *25:10 40.2993 
2 *25:10 *167:B2 40.4236 
*END

*D_NET *26 0.00462362
*CONN
*I *172:B1 I *D sky130_fd_sc_hd__a21oi_1
*I *168:D1 I *D sky130_fd_sc_hd__a2111oi_1
*I *173:A3 I *D sky130_fd_sc_hd__o31a_1
*I *167:X O *D sky130_fd_sc_hd__a2bb2o_1
*CAP
1 *172:B1 0.000123784
2 *168:D1 4.72073e-05
3 *173:A3 0
4 *167:X 0.000794038
5 *26:32 0.000176535
6 *26:26 0.00050652
7 *26:18 0.000466851
8 *26:14 0.000854326
9 *168:D1 *33:12 4.08664e-05
10 *172:B1 *174:B 8.78864e-05
11 *172:B1 *180:A3 6.44335e-05
12 *172:B1 *29:8 0.000167522
13 *172:B1 *30:8 8.22508e-06
14 *172:B1 *50:10 2.95526e-05
15 *26:14 *157:A 5.56279e-05
16 *26:14 *161:B 6.85548e-05
17 *26:18 *30:8 3.06031e-05
18 *26:18 *32:10 2.26497e-05
19 *26:26 *174:B 5.82853e-05
20 *26:26 *33:12 0.000100477
21 *26:32 *67:52 0.000264278
22 *168:B1 *26:26 2.19403e-05
23 *16:14 *172:B1 2.02872e-05
24 *18:18 *26:14 0.000323461
25 *20:32 *172:B1 1.30317e-05
26 *20:32 *26:18 1.17206e-05
27 *21:6 *26:26 0.000212998
28 *21:18 *26:32 5.19592e-05
*RES
1 *167:X *26:14 48.9908 
2 *26:14 *26:18 9.02536 
3 *26:18 *26:26 20.075 
4 *26:26 *26:32 33.6664 
5 *26:32 *173:A3 23 
6 *26:26 *168:D1 23.6214 
7 *26:18 *172:B1 41.7286 
*END

*D_NET *27 0.00139641
*CONN
*I *169:C_N I *D sky130_fd_sc_hd__or3b_1
*I *214:A I *D sky130_fd_sc_hd__clkbuf_1
*I *168:Y O *D sky130_fd_sc_hd__a2111oi_1
*CAP
1 *169:C_N 0
2 *214:A 0
3 *168:Y 0.000211863
4 *27:18 0.000217581
5 *27:8 0.000429443
6 *27:8 *168:A2 0.000138853
7 *27:8 *33:12 2.34392e-05
8 *27:18 *175:B1_N 2.50118e-05
9 *27:18 *180:B1 1.35999e-05
10 *27:18 *33:12 3.44543e-05
11 *27:18 *63:23 8.57485e-05
12 *168:B1 *27:8 9.3495e-05
13 *16:39 *27:8 5.76359e-05
14 *16:39 *27:18 6.17801e-05
15 *17:10 *27:18 3.50862e-06
*RES
1 *168:Y *27:8 27.4536 
2 *27:8 *27:18 34.5571 
3 *27:18 *214:A 23 
4 *27:8 *169:C_N 23 
*END

*D_NET *28 0.000665923
*CONN
*I *175:A1 I *D sky130_fd_sc_hd__a21bo_1
*I *169:X O *D sky130_fd_sc_hd__or3b_1
*CAP
1 *175:A1 0
2 *169:X 0.000181416
3 *28:10 0.000181416
4 *28:10 *33:12 0.000113235
5 *28:10 *48:16 0.000137754
6 *28:10 *63:8 4.44894e-05
7 *16:39 *28:10 7.61229e-06
*RES
1 *169:X *28:10 41.48 
2 *28:10 *175:A1 38 
*END

*D_NET *29 0.000444678
*CONN
*I *172:A1 I *D sky130_fd_sc_hd__a21oi_1
*I *170:Y O *D sky130_fd_sc_hd__nand2_1
*CAP
1 *172:A1 0
2 *170:Y 5.48165e-05
3 *29:8 5.48165e-05
4 *29:8 *30:8 0.000167522
5 *172:B1 *29:8 0.000167522
*RES
1 *170:Y *29:8 40.2579 
2 *29:8 *172:A1 38 
*END

*D_NET *30 0.000795824
*CONN
*I *172:A2 I *D sky130_fd_sc_hd__a21oi_1
*I *171:X O *D sky130_fd_sc_hd__a21o_1
*CAP
1 *172:A2 0
2 *171:X 0.00020367
3 *30:8 0.00020367
4 *30:8 *163:B_N 2.86399e-05
5 *30:8 *32:10 3.07633e-05
6 *30:8 *57:46 0.000122731
7 *172:B1 *30:8 8.22508e-06
8 *26:18 *30:8 3.06031e-05
9 *29:8 *30:8 0.000167522
*RES
1 *171:X *30:8 43.075 
2 *30:8 *172:A2 38 
*END

*D_NET *31 0.00109903
*CONN
*I *180:A3 I *D sky130_fd_sc_hd__o31ai_2
*I *174:B I *D sky130_fd_sc_hd__or3b_1
*I *172:Y O *D sky130_fd_sc_hd__a21oi_1
*CAP
1 *180:A3 0.000156543
2 *174:B 8.18021e-05
3 *172:Y 0
4 *31:6 0.000238345
5 *180:A3 *50:10 1.47795e-05
6 *180:A3 *60:18 6.55982e-05
7 *172:B1 *174:B 8.78864e-05
8 *172:B1 *180:A3 6.44335e-05
9 *16:14 *180:A3 0.000138859
10 *16:39 *180:A3 0.000125498
11 *20:32 *174:B 3.88725e-05
12 *20:32 *180:A3 2.8133e-05
13 *26:26 *174:B 5.82853e-05
*RES
1 *172:Y *31:6 38 
2 *31:6 *174:B 39.8229 
3 *31:6 *180:A3 42.35 
*END

*D_NET *32 0.000658681
*CONN
*I *174:C_N I *D sky130_fd_sc_hd__or3b_1
*I *173:X O *D sky130_fd_sc_hd__o31a_1
*CAP
1 *174:C_N 0
2 *173:X 0.000232009
3 *32:10 0.000232009
4 *165:A *32:10 0.000117836
5 *20:32 *32:10 5.75756e-06
6 *21:18 *32:10 0
7 *22:8 *32:10 1.76557e-05
8 *26:18 *32:10 2.26497e-05
9 *30:8 *32:10 3.07633e-05
*RES
1 *173:X *32:10 41.9564 
2 *32:10 *174:C_N 38 
*END

*D_NET *33 0.00171801
*CONN
*I *175:A2 I *D sky130_fd_sc_hd__a21bo_1
*I *174:X O *D sky130_fd_sc_hd__or3b_1
*CAP
1 *175:A2 0.00011713
2 *174:X 0.000261338
3 *33:12 0.000378468
4 *33:12 *63:23 1.0092e-05
5 *33:12 *63:29 0.000226899
6 *168:B1 *33:12 0.000229392
7 *168:D1 *33:12 4.08664e-05
8 *16:39 *33:12 0.000182222
9 *26:26 *33:12 0.000100477
10 *27:8 *33:12 2.34392e-05
11 *27:18 *33:12 3.44543e-05
12 *28:10 *33:12 0.000113235
*RES
1 *174:X *33:12 45.4364 
2 *33:12 *175:A2 39.595 
*END

*D_NET *34 0.00282404
*CONN
*I *192:B I *D sky130_fd_sc_hd__and3_1
*I *193:A1 I *D sky130_fd_sc_hd__a21oi_1
*I *178:A I *D sky130_fd_sc_hd__and2_1
*I *175:X O *D sky130_fd_sc_hd__a21bo_1
*CAP
1 *192:B 0.000302391
2 *193:A1 0.000329012
3 *178:A 0
4 *175:X 0.000169116
5 *34:15 0.000669171
6 *34:6 0.000206885
7 *192:B *193:A2 1.07299e-05
8 *192:B *36:19 0.000172004
9 *192:B *59:12 8.62783e-05
10 *193:A1 *193:A2 0.000298733
11 *193:A1 *193:B1 1.02387e-05
12 *34:6 *178:B 5.5792e-05
13 *34:6 *37:8 0.000192342
14 *210:A *192:B 2.44039e-05
15 *210:A *193:A1 9.47208e-05
16 *5:10 *193:A1 0.000127793
17 *9:13 *192:B 7.44257e-05
*RES
1 *175:X *34:6 26.9564 
2 *34:6 *178:A 23 
3 *34:6 *34:15 15.6214 
4 *34:15 *193:A1 46.5964 
5 *34:15 *192:B 44.6493 
*END

*D_NET *35 0.00313392
*CONN
*I *184:A I *D sky130_fd_sc_hd__and3_1
*I *189:A I *D sky130_fd_sc_hd__and3_1
*I *177:B1 I *D sky130_fd_sc_hd__o21a_1
*I *176:Y O *D sky130_fd_sc_hd__inv_2
*CAP
1 *184:A 0
2 *189:A 0.000123349
3 *177:B1 0
4 *176:Y 0.000274493
5 *35:29 0.000477677
6 *35:14 0.000394331
7 *35:10 0.000314496
8 *189:A *181:B1 4.83914e-05
9 *189:A *184:C 6.25657e-05
10 *189:A *200:RESET_B 0.000143655
11 *189:A *68:55 2.4754e-05
12 *35:10 *192:A 1.62015e-05
13 *35:10 *198:B1 0.000163343
14 *35:10 *203:CLK 0
15 *35:10 *206:A 0.000165583
16 *35:10 *62:47 9.5877e-05
17 *35:10 *73:10 8.33005e-05
18 *35:14 *192:A 4.04303e-05
19 *35:14 *36:6 5.50049e-05
20 *35:14 *61:6 5.50106e-05
21 *35:14 *61:10 9.67842e-05
22 *35:29 *184:C 3.47781e-05
23 *35:29 *191:A 1.57571e-05
24 *35:29 *192:A 1.24376e-05
25 *35:29 *38:12 7.76364e-06
26 *35:29 *46:10 5.50106e-05
27 *35:29 *61:10 4.03068e-05
28 *35:29 *61:16 0.000137651
29 *35:29 *61:32 0.000194972
30 *35:29 *68:31 0
*RES
1 *176:Y *35:10 43.8207 
2 *35:10 *35:14 16.5743 
3 *35:14 *177:B1 23 
4 *35:14 *35:29 37.3121 
5 *35:29 *189:A 26.0036 
6 *35:29 *184:A 23 
*END

*D_NET *36 0.00377353
*CONN
*I *178:B I *D sky130_fd_sc_hd__and2_1
*I *193:A2 I *D sky130_fd_sc_hd__a21oi_1
*I *192:C I *D sky130_fd_sc_hd__and3_1
*I *177:X O *D sky130_fd_sc_hd__o21a_1
*CAP
1 *178:B 2.93548e-05
2 *193:A2 0.000415526
3 *192:C 0
4 *177:X 0.000147619
5 *36:19 0.000720798
6 *36:6 0.000423536
7 *193:A2 *193:B1 0.000148483
8 *193:A2 *48:8 6.17437e-06
9 *193:A2 *63:62 0.000274218
10 *36:6 *192:A 0.000603898
11 *36:6 *47:10 4.02485e-05
12 *36:6 *61:6 0.000141154
13 *36:19 *192:A 7.5682e-05
14 *36:19 *203:RESET_B 0
15 *36:19 *59:12 2.61802e-05
16 *192:B *193:A2 1.07299e-05
17 *192:B *36:19 0.000172004
18 *193:A1 *193:A2 0.000298733
19 *9:13 *36:6 0.000102245
20 *9:13 *36:19 2.6146e-05
21 *34:6 *178:B 5.5792e-05
22 *35:14 *36:6 5.50049e-05
*RES
1 *177:X *36:6 29.7321 
2 *36:6 *192:C 23 
3 *36:6 *36:19 21.9807 
4 *36:19 *193:A2 48.6679 
5 *36:19 *178:B 38.6214 
*END

*D_NET *37 0.00218212
*CONN
*I *179:A I *D sky130_fd_sc_hd__clkbuf_1
*I *178:X O *D sky130_fd_sc_hd__and2_1
*CAP
1 *179:A 0.000465308
2 *178:X 9.74923e-05
3 *37:8 0.000562801
4 *179:A *198:B1 0
5 *179:A *199:RESET_B 5.46706e-05
6 *179:A *203:RESET_B 0.000640996
7 *179:A *48:16 0.000168515
8 *179:A *73:10 0
9 *34:6 *37:8 0.000192342
*RES
1 *178:X *37:8 40.5271 
2 *37:8 *179:A 49.4136 
*END

*D_NET *38 0.00367455
*CONN
*I *187:C1 I *D sky130_fd_sc_hd__o211a_1
*I *184:B I *D sky130_fd_sc_hd__and3_1
*I *189:B I *D sky130_fd_sc_hd__and3_1
*I *180:Y O *D sky130_fd_sc_hd__o31ai_2
*CAP
1 *187:C1 0.00024972
2 *184:B 0
3 *189:B 0.000186848
4 *180:Y 0.000518069
5 *38:16 0.000365582
6 *38:12 0.000946522
7 *187:C1 *183:B 0.000132927
8 *187:C1 *200:RESET_B 0
9 *187:C1 *40:29 0.000205648
10 *187:C1 *40:48 4.21594e-06
11 *187:C1 *62:21 0
12 *189:B *181:B1 1.24376e-05
13 *189:B *183:B 0
14 *189:B *39:14 4.00259e-06
15 *189:B *68:27 5.3304e-05
16 *189:B *68:55 0.0002246
17 *38:12 *182:C 8.44838e-05
18 *38:12 *183:B 9.28078e-06
19 *38:12 *184:C 0
20 *38:12 *61:16 2.96051e-05
21 *38:12 *61:32 0.000139647
22 *38:12 *67:33 1.02387e-05
23 *38:12 *67:52 0.000203727
24 *38:12 *68:31 0
25 *38:16 *181:B1 5.57796e-05
26 *38:16 *39:14 5.41288e-05
27 *16:20 *38:12 0.000176017
28 *35:29 *38:12 7.76364e-06
*RES
1 *180:Y *38:12 49.2479 
2 *38:12 *38:16 17.5271 
3 *38:16 *189:B 26.9979 
4 *38:16 *184:B 23 
5 *38:12 *187:C1 42.7229 
*END

*D_NET *39 0.000665003
*CONN
*I *183:A I *D sky130_fd_sc_hd__nor2_1
*I *181:Y O *D sky130_fd_sc_hd__a21oi_1
*CAP
1 *183:A 0
2 *181:Y 0.000147738
3 *39:14 0.000147738
4 *39:14 *181:A1 4.19183e-05
5 *39:14 *181:B1 2.46468e-05
6 *39:14 *183:B 0.000150396
7 *39:14 *61:32 9.44341e-05
8 *189:B *39:14 4.00259e-06
9 *38:16 *39:14 5.41288e-05
*RES
1 *181:Y *39:14 27.5468 
2 *39:14 *183:A 23 
*END

*D_NET *40 0.0048525
*CONN
*I *187:A2 I *D sky130_fd_sc_hd__o211a_1
*I *188:A2 I *D sky130_fd_sc_hd__a21o_1
*I *186:A2 I *D sky130_fd_sc_hd__a21oi_1
*I *183:B I *D sky130_fd_sc_hd__nor2_1
*I *182:X O *D sky130_fd_sc_hd__and3_1
*CAP
1 *187:A2 0
2 *188:A2 0
3 *186:A2 0
4 *183:B 0.000202762
5 *182:X 9.79667e-05
6 *40:54 0.000167488
7 *40:48 0.000899312
8 *40:40 0.000797306
9 *40:29 0.000182468
10 *40:10 0.000417715
11 *183:B *182:C 5.18188e-05
12 *183:B *198:A1 2.45549e-06
13 *183:B *198:B1 0
14 *183:B *41:14 0.000118512
15 *183:B *55:10 5.90675e-06
16 *40:10 *201:RESET_B 0
17 *40:10 *62:47 0.000261136
18 *40:10 *68:63 0.000116564
19 *40:29 *182:C 2.96154e-05
20 *40:29 *199:CLK 0
21 *40:29 *57:75 8.4047e-05
22 *40:29 *67:31 4.98718e-06
23 *40:40 *187:A1 3.12315e-05
24 *40:40 *43:16 0.000154575
25 *40:40 *53:33 0.000196849
26 *40:48 *53:33 0.000297857
27 *40:48 *54:44 1.05235e-05
28 *40:48 *62:21 2.8936e-05
29 *40:54 *202:D 0
30 *40:54 *54:44 0.000160906
31 *40:54 *57:14 0
32 *40:54 *58:10 2.90932e-05
33 *187:C1 *183:B 0.000132927
34 *187:C1 *40:29 0.000205648
35 *187:C1 *40:48 4.21594e-06
36 *189:B *183:B 0
37 *38:12 *183:B 9.28078e-06
38 *39:14 *183:B 0.000150396
*RES
1 *182:X *40:10 41.0243 
2 *40:10 *183:B 42.8264 
3 *40:10 *40:29 17.9621 
4 *40:29 *186:A2 23 
5 *40:29 *40:40 3.045 
6 *40:40 *40:48 39.9221 
7 *40:48 *40:54 33.6664 
8 *40:54 *188:A2 23 
9 *40:40 *187:A2 23 
*END

*D_NET *41 0.00137404
*CONN
*I *184:C I *D sky130_fd_sc_hd__and3_1
*I *183:Y O *D sky130_fd_sc_hd__nor2_1
*CAP
1 *184:C 0.000151336
2 *183:Y 0.000371387
3 *41:14 0.000522723
4 *184:C *200:RESET_B 1.12487e-05
5 *184:C *61:32 9.21347e-06
6 *184:C *68:31 0
7 *184:C *68:63 7.17297e-05
8 *41:14 *182:C 2.05503e-05
9 *183:B *41:14 0.000118512
10 *189:A *184:C 6.25657e-05
11 *35:29 *184:C 3.47781e-05
12 *38:12 *184:C 0
*RES
1 *183:Y *41:14 47.9901 
2 *41:14 *184:C 48.7861 
*END

*D_NET *42 0.00170959
*CONN
*I *185:A I *D sky130_fd_sc_hd__buf_1
*I *184:X O *D sky130_fd_sc_hd__and3_1
*CAP
1 *185:A 0.000428956
2 *184:X 6.00464e-05
3 *42:8 0.000489003
4 *185:A *190:A 6.07576e-05
5 *185:A *201:D 1.23293e-05
6 *185:A *54:44 0.0002276
7 *185:A *57:8 2.07623e-05
8 *185:A *68:20 0.000323853
9 *42:8 *200:RESET_B 8.62783e-05
*RES
1 *184:X *42:8 39.2014 
2 *42:8 *185:A 46.7829 
*END

*D_NET *43 0.000644308
*CONN
*I *187:B1 I *D sky130_fd_sc_hd__o211a_1
*I *186:Y O *D sky130_fd_sc_hd__a21oi_1
*CAP
1 *187:B1 0
2 *186:Y 0.00011396
3 *43:16 0.00011396
4 *43:16 *186:B1 5.90675e-06
5 *43:16 *187:A1 0.000173919
6 *43:16 *53:33 8.19865e-05
7 *40:40 *43:16 0.000154575
*RES
1 *186:Y *43:16 27.407 
2 *43:16 *187:B1 23 
*END

*D_NET *44 0.00117489
*CONN
*I *189:C I *D sky130_fd_sc_hd__and3_1
*I *188:X O *D sky130_fd_sc_hd__a21o_1
*CAP
1 *189:C 0.000132099
2 *188:X 0.000132654
3 *44:8 0.000264754
4 *189:C *200:RESET_B 0.000216825
5 *44:8 *45:8 1.82497e-05
6 *44:8 *58:21 0.000270453
7 *44:8 *68:20 0.000139856
*RES
1 *188:X *44:8 41.6664 
2 *44:8 *189:C 40.3614 
*END

*D_NET *45 0.001488
*CONN
*I *190:A I *D sky130_fd_sc_hd__buf_1
*I *189:X O *D sky130_fd_sc_hd__and3_1
*CAP
1 *190:A 0.000180979
2 *189:X 0.000114887
3 *45:8 0.000295866
4 *190:A *54:44 0.000119372
5 *190:A *57:8 0.000302946
6 *190:A *57:14 0.000227473
7 *190:A *68:20 4.10702e-05
8 *45:8 *194:B 8.87281e-05
9 *45:8 *58:10 0
10 *45:8 *68:20 3.76761e-05
11 *185:A *190:A 6.07576e-05
12 *44:8 *45:8 1.82497e-05
*RES
1 *189:X *45:8 40.61 
2 *45:8 *190:A 44.3593 
*END

*D_NET *46 0.00064392
*CONN
*I *198:A1 I *D sky130_fd_sc_hd__a21oi_1
*I *191:X O *D sky130_fd_sc_hd__or2_1
*CAP
1 *198:A1 0.000109342
2 *191:X 9.43204e-05
3 *46:10 0.000203662
4 *198:A1 *55:10 8.91468e-07
5 *46:10 *52:10 8.4047e-05
6 *46:10 *67:31 1.01436e-05
7 *46:10 *67:33 8.4047e-05
8 *183:B *198:A1 2.45549e-06
9 *35:29 *46:10 5.50106e-05
*RES
1 *191:X *46:10 39.8229 
2 *46:10 *198:A1 39.0979 
*END

*D_NET *47 0.00181869
*CONN
*I *197:A1 I *D sky130_fd_sc_hd__o2111ai_1
*I *192:X O *D sky130_fd_sc_hd__and3_1
*CAP
1 *197:A1 1.92001e-05
2 *192:X 0.000392459
3 *47:10 0.000411659
4 *197:A1 *203:CLK 5.3304e-05
5 *197:A1 *48:16 5.58003e-05
6 *47:10 *192:A 1.01436e-05
7 *47:10 *61:6 0.000299117
8 *47:10 *61:10 5.3304e-05
9 *47:10 *61:63 0.000191637
10 *47:10 *63:29 0.000191637
11 *9:13 *47:10 0.00010018
12 *36:6 *47:10 4.02485e-05
*RES
1 *192:X *47:10 46.9486 
2 *47:10 *197:A1 38.6214 
*END

*D_NET *48 0.00285989
*CONN
*I *197:A2 I *D sky130_fd_sc_hd__o2111ai_1
*I *193:Y O *D sky130_fd_sc_hd__a21oi_1
*CAP
1 *197:A2 0
2 *193:Y 0.00033711
3 *48:16 0.000870852
4 *48:8 0.00120796
5 *48:8 *193:B1 1.32939e-05
6 *48:16 *193:B1 0
7 *48:16 *203:CLK 4.52979e-05
8 *48:16 *63:23 1.71301e-05
9 *48:16 *63:62 0
10 *48:16 *67:52 0
11 *179:A *48:16 0.000168515
12 *193:A2 *48:8 6.17437e-06
13 *197:A1 *48:16 5.58003e-05
14 *17:10 *48:16 0
15 *28:10 *48:16 0.000137754
*RES
1 *193:Y *48:8 42.4329 
2 *48:8 *48:16 29.935 
3 *48:16 *197:A2 23 
*END

*D_NET *49 0.00126678
*CONN
*I *197:B1 I *D sky130_fd_sc_hd__o2111ai_1
*I *194:Y O *D sky130_fd_sc_hd__xnor2_1
*CAP
1 *197:B1 0
2 *194:Y 0.000339174
3 *49:8 0.000339174
4 *49:8 *203:CLK 1.9054e-05
5 *49:8 *51:10 0.000541031
6 *49:8 *52:10 2.83509e-05
*RES
1 *194:Y *49:8 30.3121 
2 *49:8 *197:B1 23 
*END

*D_NET *50 0.00264165
*CONN
*I *197:C1 I *D sky130_fd_sc_hd__o2111ai_1
*I *195:Y O *D sky130_fd_sc_hd__xnor2_1
*CAP
1 *197:C1 0.000216967
2 *195:Y 0.000812747
3 *50:10 0.00102971
4 *197:C1 *51:10 5.80693e-05
5 *197:C1 *52:10 9.91548e-05
6 *50:10 *159:A 0.000103736
7 *50:10 *160:A_N 6.96978e-05
8 *50:10 *166:A 0.000100061
9 *50:10 *65:8 2.97422e-05
10 *172:B1 *50:10 2.95526e-05
11 *180:A3 *50:10 1.47795e-05
12 *16:14 *50:10 4.08164e-05
13 *16:20 *50:10 3.6608e-05
*RES
1 *195:Y *50:10 49.3514 
2 *50:10 *197:C1 41.0036 
*END

*D_NET *51 0.00176108
*CONN
*I *197:D1 I *D sky130_fd_sc_hd__o2111ai_1
*I *196:Y O *D sky130_fd_sc_hd__xnor2_1
*CAP
1 *197:D1 0
2 *196:Y 0.000444561
3 *51:10 0.000444561
4 *51:10 *194:A 0.000103736
5 *51:10 *194:B 5.56279e-05
6 *51:10 *52:10 2.95423e-05
7 *51:10 *57:46 8.39496e-05
8 *197:C1 *51:10 5.80693e-05
9 *49:8 *51:10 0.000541031
*RES
1 *196:Y *51:10 33.7921 
2 *51:10 *197:D1 23 
*END

*D_NET *52 0.00154642
*CONN
*I *198:A2 I *D sky130_fd_sc_hd__a21oi_1
*I *197:Y O *D sky130_fd_sc_hd__o2111ai_1
*CAP
1 *198:A2 0
2 *197:Y 0.000296896
3 *52:10 0.000296896
4 *52:10 *203:CLK 0.000344365
5 *52:10 *63:29 5.38328e-05
6 *52:10 *67:31 4.03799e-05
7 *52:10 *67:33 2.91142e-05
8 *52:10 *67:52 0.000243839
9 *197:C1 *52:10 9.91548e-05
10 *46:10 *52:10 8.4047e-05
11 *49:8 *52:10 2.83509e-05
12 *51:10 *52:10 2.95423e-05
*RES
1 *197:Y *52:10 46.1821 
2 *52:10 *198:A2 38 
*END

*D_NET *53 0.00336117
*CONN
*I *205:A I *D sky130_fd_sc_hd__clkbuf_16
*I *206:A I *D sky130_fd_sc_hd__clkbuf_16
*I *204:X O *D sky130_fd_sc_hd__clkbuf_16
*CAP
1 *205:A 0
2 *206:A 0.000226724
3 *204:X 0.000254626
4 *53:33 0.000508881
5 *53:10 0.000990231
6 *206:A *198:B1 4.94517e-05
7 *206:A *199:CLK 0.000108847
8 *206:A *203:CLK 2.46933e-05
9 *206:A *67:10 0.000187986
10 *53:10 *56:8 6.32688e-05
11 *53:10 *67:10 1.01436e-05
12 *53:33 *186:B1 8.09334e-05
13 *53:33 *187:A1 3.44835e-05
14 *53:33 *199:D 6.17437e-06